<?xml version="1.0"?>

<!-- generated on Thu Jul 11 17:44:58 2013 by SUMO duarouter Version 0.15.0
<?xml version="1.0" encoding="UTF-8"?>

<configuration xmlns:xsi="http://www.w3.org/2001/XMLSchema-instance" xsi:noNamespaceSchemaLocation="http://sumo.sf.net/xsd/duarouterConfiguration.xsd">

    <input>
        <net-file value="madrid.net.xml"/>
        <alternative-files value="5-6000-madrid_prueba_028.rou.alt.xml"/>
        <weight-files value="dump_028_900.xml"/>
    </input>

    <output>
        <output-file value="5-6000-madrid_prueba_029.rou.xml"/>
        <vtype-output value=""/>
        <exit-times value="false"/>
    </output>

    <processing>
        <ignore-errors value="true"/>
        <max-alternatives value="5"/>
        <with-taz value="false"/>
        <routing-algorithm value="astar"/>
        <gawron.beta value="0.9"/>
        <gawron.a value="0.5"/>
        <keep-all-routes value="false"/>
        <logit value="false"/>
        <logit.beta value="0.15"/>
        <logit.gamma value="1"/>
    </processing>

    <time>
        <begin value="0"/>
    </time>

    <report>
        <verbose value="false"/>
        <no-warnings value="true"/>
        <no-step-log value="true"/>
    </report>

    <random_number>
        <random value="false"/>
    </random_number>

</configuration>
-->

<routes xmlns:xsi="http://www.w3.org/2001/XMLSchema-instance" xsi:noNamespaceSchemaLocation="http://sumo.sf.net/xsd/routes_file.xsd">
    <vehicle id="0" depart="0.00">
        <route edges="15100483#0 15100483#1 -43405602#5 -14580239#6 -14580239#5 -14580239#4 -14580239#3 -14580239#2 -14580239#1 -14580239#0 -11476781#2 -11476781#1 -11476781#0 45756886#1 45756881 11476841 67496504 67496498 11104585 43798334#0 43798334#1"/>
    </vehicle>
    <vehicle id="1" depart="0.58">
        <route edges="14485480 44167871#0 44167871#1 102494324#0 32840922#0 7971519 -7971524 -7971525 44336478#0 44336478#1 44336478#2 44336478#3 43405584#0 43405584#2 14567301#8 133150561#3 4526341#5"/>
    </vehicle>
    <vehicle id="2" depart="1.15">
        <route edges="74017967#2 74017967#3 65084628#0 65084628#1 65084628#2 82567733#2 82567735 43410340 82567740#0 82567740#1 82567730 82567738#0 82567738#1 82567737 70810663 45756877#0 45756877#1 43410339 82567739#0 82567739#1 82567739#2 82567739#3 32029326 32029327#0 32029327#1 32029327#2 32029327#3 32029327#4 32029327#5 32029327#6 137200184 4339396#0 4339396#1 30625558 77065964 77065975#0 77065975#1 77065975#2 32025281 32025283 32028463 32028465"/>
    </vehicle>
    <vehicle id="3" depart="1.73">
        <route edges="174814863#8 -14566906#1 -14566906#0 31784877#3 14485666#0 14485666#1 14485666#2 44167871#0 44167871#1 102494324#0 32840922#0 7971519 7971518 7971535 43759950#0 43759950#1 53321075#0 53321075#1 53321083#0 53321083#1 -43798349#1 -43798349#0 -83668212 -83668215 -43759960 -43759962 -14771608 -195664262 -195664261#1 -195664261#0 -131443341 -44336476 -7971523 14459910 44336477 131431680 27926842 -8031768 14459386 161638119#1 161638119#2 14459472 24619376#4 53323771#0 53323771#1 4321666#8 4321666#9 4321666#10 26630160#4 26630160#5 72247187#0 72247187#1 4487841 72247205 77603043#0 77603043#1 72247177 131450464#0 131450464#1 7593899 43407380#0 43407380#1 43407380#2 43407380#3 43407380#4"/>
    </vehicle>
    <vehicle id="4" depart="2.30">
        <route edges="45314134#1 67605423 44536106 131451851 62695885#0 62695885#1 62695885#2 62695885#3 45314176#0 45314176#1 45314183 45314185#0 45314185#1 15219001 30385988 187906385#0 45314230#1 14483633 71079772#0 71079772#1 71079776 32025213 9933911 8029903#0 8029903#2 8029903#3 8029903#4 8029903#5 8029903#6 8029903#7 8029903#8 45764851#1"/>
    </vehicle>
    <vehicle id="5" depart="2.88">
        <route edges="44335066#0 4314420#5 107081344#1 44335067#2 24225793#0 24225793#1 24225793#2 24225793#4 7642851 43410335#0 43410335#1 44737274#0 44737274#1 44737274#2 44737274#3 44737274#4 44737274#5 44737274#6 44737274#7 181982237#0 181982237#1 181982237#2 181982237#3 44335072#0 44335072#1 11342060#0 11342060#1 43798345 44335071#0 44335071#2 -7732159"/>
    </vehicle>
    <vehicle id="6" depart="3.46">
        <route edges="13024789#3 13024789#4 13024990#1 11105757#4 13031872 13031905 11103146#3 11103934 11381102 -11381084#1 -11381084#0 11381076 43760196#3 43760196#4 43760196#5 43760201#0 32195455#0 32195455#1 32195456#0 44335669#5 44536988#0 44536988#1 44536988#2 44536988#3 9934004#0 11074834#0 9933940#0 9934004#4 9934004#5 9934004#6 9934004#7 9934004#8 11072487#0 11072487#1 30691101#1 10044099#0 9941126#1 9941126#2 9941126#3 32029327#0 32029327#1 32029327#2 32029327#3 32029327#4 32029327#5 32029327#6 137200184 4339396#0 4339396#1 30625558 77065964 77065975#0 77065975#1 77065975#2 32025281 32025283 32025284#0 32025284#1 32025284#2 104340955 104340968#0 104340968#1 104340968#2"/>
    </vehicle>
    <vehicle id="7" depart="4.03">
        <route edges="4307821#2 4307816 38448424#0 38448424#1 38448424#2 43410320 43410321#0 43410321#1 7972445 49600302#0 49600302#1 4321663#0 4321663#2 24619376#0 24619376#1 14459504#0 161638119#0 161638119#1 161793152 14459399 136736904#2 136736904#3 4314423#2 4314423#3 4497474#4 4497474#5 43407395 4314421#5 4314421#6 107078361#5 107078361#6 107078361#7 107078361#8 107078361#9 107078361#10 43407389 43407390#0 43407390#1 43407388 4489422#0 4489422#1 -43407385 4489424 165469577 43407384#0 15230921#0 15230922 15230915#3 15230915#4"/>
    </vehicle>
    <vehicle id="8" depart="4.61">
        <route edges="98561773#0 -98561773#0 -98561779#1 -98561779#0 98561777#0 98561777#1 98561777#2 98561777#3 45757400#0 45757400#1 32025283 32025284#0 32025284#1 32025284#2 104340955 104340968#0 104340968#1 104340968#2 104340968#3 104340968#4 104340968#5 104340968#6 7971920#0 7971920#1 45764844#5 43410334#0 43410334#1 43410334#3 43410334#4 43410334#5 44737273 131431680 4321668 131443343 184882187 14459845 -107090824#1 14460667#0 44336475#1 44336475#2 44336475#3 44336475#4 44336475#5 44336475#6 136841239#0 136841239#1 43410321#0 43410321#1 43410322#0 43410322#1 131450468#0 131450468#1 4950641#0 4950641#1 4307821#0 4307821#1 4307814#0 4307814#1 -4307812#0 44884571#0 44884571#1 44884571#2 4099789 174852230#1 7642986#0 4487679#4 4487808#1"/>
    </vehicle>
    <vehicle id="9" depart="5.18">
        <route edges="23573143#0 23713175#7 43405583#9 44167895#0 44167895#1 44167895#2 44167895#3 44167895#4 44167895#5 44167895#6 44167895#7 44167895#8 11477831#0 11477831#1 11477764#0 11477764#1 11477764#2 11477764#3 11477764#4 -11477752#1 -11477752#0 -11477632#3 -56323529 -48503829 -11477065#2 -11477065#1 -11477065#0 43798338#2 43798338#3 131504893#2 58692956#0 58692956#1 11105765 11105757#0 11105757#1 11105757#2 -11105757#2"/>
    </vehicle>
    <vehicle id="10" depart="5.76">
        <route edges="6074626#1 10642028#0 10642028#1 10642028#2 10642028#3 -10643238#1 -10643238#0 30693242#2 70810680#0 70810680#1 70810663 45756877#0 45756877#1 43410339 82567739#0 82567739#1 82567739#2 82567739#3 32029326 32029327#0 32029327#1 32029327#2 32029327#3 32029327#4 32029327#5 32029327#6 137200184 4339396#0 4339396#1 45764849#0 45764849#1 45764850 7971917#0 7971917#1 7971917#2 7971917#3 44737276#1 45764844#0 45764844#1 45764844#2 7971918#0 7971918#1 31055892 7971919#0 7971919#1 4491031#0 4491031#1 4321666#0 4321666#1 4321666#2 4321666#3 4321666#4 4321666#5 4321666#6 4321666#7 4321666#8 4321666#9 4321666#10 4950794#0 4950794#1 72247241#3 72247241#6 72247241#7"/>
    </vehicle>
    <vehicle id="11" depart="6.34">
        <route edges="9934315#2 109238273 31952954#0 31952954#1 109238270#0 109238270#1 109238270#2 74017969 46827290#0 7990966#0 7990966#2 7990966#3 43760194#0 43760194#1 32195452#0 32195452#1 118988838 32195456#0 31784353#0 31784353#1 31784354#0 31784354#2 31784354#4 44536989#0 7732118#0 7732118#1 7971503#0"/>
    </vehicle>
    <vehicle id="12" depart="6.91">
        <route edges="-116693072#0 116693077 116693069#1 116693069#2 116693069#3 112660678#0 112660678#1 -45764846#4 -45764846#3 -45764846#2 148197004 148197008#1 8029903#7 8029903#8 45764851#1 45764851#2 104340960 11101038 4491031#0 4491031#1 4491031#2 4491031#3 24234140#0 24234140#1 24234140#2 44335065#3 44335066#0 44335066#1 44335066#2 44335066#3 44335066#4 44335066#5 44335066#6 44335066#7 107078360#0 107078360#1 107078360#2 4487841 72247205 77603043#0 77603043#1 72247177 131450464#0 131450464#1 7593899 43407379#0 43407379#1 43407379#2 71270648#0 71270648#1 7643019#0 7643019#1 7643019#2 7643019#3"/>
    </vehicle>
    <vehicle id="13" depart="7.49">
        <route edges="137206565#3 137206565#4 137206565#5 137206565#6 137206565#7 137206565#8 137206569 31783667#0 31783667#1 11477978 27927582#0 27927582#1 137355361#0 137355361#1 11105785#1 11105785#2 11105785#3 11105785#4 43798338#0 43798338#1 43798338#2 43798338#3 131504893#2 58692956#0 58692956#1 58692956#2 58692956#3 11104407 -11103994#3 -11103994#2 -11103994#1 -11103994#0 -11103905#1 11103934 11381102 -11381084#1 -11381084#0 11381076 43760196#3 43760196#4 43760196#5 43760201#0 43760201#1 44536991#0 44536991#1 9934195 9934191 7990963#0"/>
    </vehicle>
    <vehicle id="14" depart="8.06">
        <route edges="-11103994#1 11103994#1 11103994#2 11103994#3 11104389 58692956#5 44335671#0 44335671#1 44335671#2 131504893#0 11477389#0 11477389#1 11477389#2 56323519#0 -56323526 -11477415#3 -11477415#2 -11477415#1 -11477415#0 11477565#2 11477565#3 43798337#8 43798337#9 43798341#0 43798341#1 14484711#0 14484711#1 14484711#2 4680727#0 4680727#1 4680727#2 4680727#3 4680727#4 44167871#0 44167871#1 102494324#0 32840922#0 7971519 -7971524 -7971525 44336478#0 44336478#1 44336478#2 44336478#3 43405582#0 43405582#1 43405582#2 4526344#2 4526344#4"/>
    </vehicle>
    <vehicle id="15" depart="8.64">
        <route edges="14484972#1 14484972#2 14484847#3 163805461#3 163805461#4 7732117 7732113#0 11340502#0 11340476#0 11340476#1 11379461#0 11379461#1 116693040#1 116693062#2 116693064#0 116693064#1 163577079#2 163577079#3 9934157#1 9934157#2 9940952#5"/>
    </vehicle>
    <vehicle id="16" depart="9.22">
        <route edges="15090792#3 15090733#4 15090733#5 23712993#5 -15102612 43405602#4 -14580239#6 -14580239#5 -14580239#4 -14580239#3 -14580239#2 -14580239#1 -14580239#0 -11476781#2 -11476781#1 -11476781#0 45756886#1 45756881 11476841 67496504 67496498 11104585 27125327#0 27125327#1 13025660#3 13025660#4 13025660#5 13025660#6 13025660#7 13024789#0 13024789#1 13024789#2 13024789#3 13024789#4 13024789#5 13024789#6 13024789#7 44334522#0 44334522#1 44334522#2 44334522#3 44334522#4 46827287#0 46827287#1 46827287#2 46827287#3 46827287#4 43760306#0 43760306#1 9934287#0 9934287#1 9934287#2 9934287#3 31952950#0 31952950#1 31952950#2 31952950#3 44334516 10571938#0 10571938#1 10571938#2 10571938#3 40520101#0 40520101#1 40520101#2 10642376#4 10642628#0 10642628#1 10642628#2 30693244#0 30693244#1 30693244#2 30693244#3 30693244#4"/>
    </vehicle>
    <vehicle id="17" depart="9.79">
        <route edges="45764844#2 7971918#0 7971918#1 44335068#0 4946755#0 4946755#1 7712487 7712485#1 4339400 11100593#0 11100593#1 11100593#2 14481788#9 14481788#10 14481788#11 14481788#12 11099985#5 8029903#2 85328247 45764846#4 85328237 7732121#1 7732121#2 7732121#3 7732120#0 7732120#1 7732116#0 7732116#1 118934455 7732125#0 56323517#0 56323516#0 56323516#1 14484711#1 14484711#2 44336479#0 44336479#1 14483931#0 14483931#1 123625803 123625794#0 123625794#1 14484741 -11477772#2 -11477772#1 -11477772#0 11477764#0 11477764#1 11477764#2 14579196 14580043#0 14580043#1 14580018#1 56323513"/>
    </vehicle>
    <vehicle id="18" depart="10.37">
        <route edges="44335066#3 44335066#4 44335066#5 44335066#6 44335066#7 107078360#0 107078360#1 107078360#2 72247225 33760307#5 33760307#6 131553923#0 131553923#1 131553923#2 131553923#3 131553923#4 131553923#6 33580890 43410324 131443346#0 131443346#1 4950643#0 4950643#1 4950643#2 4950643#3 4950643#4 4950641#0 4950641#1 4307821#0 4307821#1 4307821#2 4307816 -24535747#1 107090823#0 107090823#1 107090823#2 24812300#3"/>
    </vehicle>
    <vehicle id="19" depart="10.94">
        <route edges="44737275#1 44737275#2 45764848#0 45764848#1 45764848#2 45764848#3 44737277#0 44737277#1 44737277#2 43410338 71055297#0 71055297#1 71019433 71019462 137200185 -32029327#6 -32029327#5 -32029327#4 -32029327#3 -32029327#2 -32029327#1 -32029327#0 -32029326 -82567739#3 -82567739#2 -82567739#1 -82567739#0 -43410339 9939408#0 9939408#1 9939408#2 9939408#3 -45756879 -45756878 -74017967#11 -74017967#10 -74017967#8 -74017967#7 -74017967#5 -74017967#4 -74017967#3 -74017967#2 9938782#2 9938782#3 -65084622#0 65084622#0"/>
    </vehicle>
    <vehicle id="20" depart="11.52">
        <route edges="11477471#0 -11477632#1 -11477632#0 -32025120#0 43798337#7 43798337#8 43798337#9 43798341#0 43798341#1 14484711#0 14484711#1 24829805 123625798#0 123625798#1 123625798#2 -7732155#1 -7732155#0 7732136#0 7732136#1 7732157#0 7732157#2 7732157#3 7732157#4 7732157#5 7732157#6 7732157#7 8029712#0 8029712#1 8029712#2 45764851#0 45764851#1 45764851#2 24275863#0 24275863#1 104340951#0 104340951#1 45764847#0 45764847#1 45764847#2 7971918#0 7971918#1 31055892 7971919#0 7971919#1 4491031#0 4491031#1 4321666#0 24225793#1 43407392#3 182096890 -182096890"/>
    </vehicle>
    <vehicle id="21" depart="12.10">
        <route edges="131504884#1 -67496458 27125327#0 27125327#1 32025057#0 32025057#1 13028902 11477601#0 11477601#1 11477601#2 11477601#3 11477601#4 43798337#0 43798337#1 43798337#2 43798337#3 43798337#4 43798337#5 43798337#6 43798337#7 43798337#8 43798337#9 7732124#0 7732124#1 7732124#2 7732124#3 7732115#0 7732115#1 44571137#0 44571137#1 7732118#0 7732118#1 7971503#0 7971503#2 7971503#3 7971503#4 7971503#5 32025213 9933911 8029903#0 8029903#2 8029903#3 8029903#4 8029903#5 8029903#6 8029903#7 8029903#8 45764851#1 45764851#2 104340960 11101038 4491031#0 4491031#1 4491031#2 4491031#3 24234140#0 24234140#1 24234140#2 4319191#0 4319191#1 107078361#8 107078361#9 4489515#0"/>
    </vehicle>
    <vehicle id="22" depart="12.67">
        <route edges="-7642766#0 43405567#0 43405567#1 43405567#2 131542527 45757397#0 45757397#1 44335063 4489370#0 4489370#1 -136730698 -165468283#1 -165468283#0 -165468884#1 -165468884#0 -43407387 -43407388 -44335064#1 -44335064#0 -104340974 -4489368 4946758 107078365#0 107078365#2 107078365#4 107078365#5 107078365#6 107078365#7 107078365#8 104340957 104340973#2 133979729 30625550#1 30625550#2 30625550#4 45764850 43410337#0 43410337#1 43410338 71055297#0 71055297#1 71019433 71019462 137200185 -32029327#6 -32029327#5 -32029327#4 -32029327#3 -32029327#2 -32029327#1 -32029327#0 -32029326 -82567739#3 -82567739#2 -82567739#1 -82567739#0 -43410339 -45756877#1 -45756877#0 -70810663 -82567737 -82567738#1 -82567738#0 -82567730 -82567740#1 -82567740#0 -43410340 -100704667 -82567733#2 -82567733#1 82567733#1"/>
    </vehicle>
    <vehicle id="23" depart="13.25">
        <route edges="9939389#3 45756877#0 45756877#1 43410339 82567739#0 82567739#1 82567739#2 82567739#3 32029326 32029327#0 32029327#1 32029327#2 32029327#3 32029327#4 32029327#5 32029327#6 137200184 4339396#0 4339396#1 45764849#0 45764849#1 45764850 7971917#0 7971917#1 7971917#2 7971917#3 44737276#1 45764844#0 45764844#1 45764844#2 45764844#3 45764844#4 45764844#5 43410334#0 43410334#1 43410334#3 43410334#4 43410334#5 44737273 131431680 4321668 8098348 8098342#0 184882187 14459845 -107090824#1 -107090824#0 -49600302#3 -49600302#2 -49600302#1 -49600302#0 14460235 131450468#0 131450468#1 4101280#0 4101280#1 4101280#2 49600408#0 49600408#1 49600408#4 49600408#5 4101279#0 4101279#1 4101279#2 4101279#3 4101279#4 4101279#5 4101279#6 4101279#7 4101279#8 4101279#9 7971582#0 7971582#1 7971583#1 29591216#2 4308074#1"/>
    </vehicle>
    <vehicle id="24" depart="13.82">
        <route edges="44167990#2 44167990#3 44167990#4 44167990#6 44167990#7 44167989#0 44167989#1 45314235#0 45314235#1 45314238#1 45314238#2 45314238#3 137206570#0 137206570#1 137206570#2 137206570#3 137206570#4 32840925#6 32840925#7 32840925#8 32840925#9 4487907#0 4487907#1 4487907#2 4487907#3 192162053 45314134#0 45314134#1 6601805#0 6601805#1 6601805#3 6601805#4 6601805#5 6601805#6 6601805#7 6601805#8 6601805#9 6601805#10 62298633"/>
    </vehicle>
    <vehicle id="25" depart="14.40">
        <route edges="109462873#5 123625796#12 123625796#13 123625796#14 131451851 62695885#0 62695885#1 62695885#2 62695885#3 45314176#0 45314176#1 45314183 45314185#0 45314185#1 15219001 30385988 45314230#0 45314230#1 14483633 71079772#0 71079772#1 71079776 32025213 -32025212#10 -32025212#9 -32025212#8 -32025212#7 -32025212#6 9939505#0 9939505#1 9939505#2 9939505#3 9939505#4 9939505#5 9939505#6 9939505#7 9939505#8 -32029327#3 -32029327#2 -32029327#1 -32029327#0 -32029326 -82567739#3 -82567739#2 -82567739#1 -82567739#0 -43410339 -45756877#1 45756877#1"/>
    </vehicle>
    <vehicle id="26" depart="14.98">
        <route edges="-76809473#0 -4487680 4487498#0 4487498#1 4487498#3 31093152#0 31093152#1 44737270#0 112538796#0 112538796#2 112538796#4 112538811#0 112538811#1 76817092#0 76817092#2 76817092#3 76817092#6 76817092#7 106343219#0 106343219#2 106343219#3 53321072#0 53321072#1 53321077#0 131553936#0 11341598#0 11341598#1 43798345 44335071#0 44335071#2 -7732159 30993406#0 30993406#1 7732157#0 7732157#2 7732157#3 24253745#7 24253745#9 24253745#10 24253745#11 24253745#12 24253745#13 24253745#14 118934457 118934456#0 118934456#1 31784355#0 31784355#1 31784356#0 31784356#2 32195453#0 32195453#1 31783747#0 31783747#3 31783747#4 46827287#3 46827287#4 43760306#0 43760306#1 9934287#0 9934287#1 9934287#2 9934287#3 31952950#0 31567839 31952964"/>
    </vehicle>
    <vehicle id="27" depart="15.55">
        <route edges="137519645#2 137519645#3 137519644#0 137519644#1 137519644#2 137519644#3 137519644#4 137519642#0 137519642#1 43405588#2 31784764#0 137216212 -43405585#2 -43405585#1 -43405585#0 -43405584#3 -43405584#2 -43405584#1 -106343228#1 -106343228#0 4638449#0 4638449#2 4638449#3 4638449#4 14463217#0 14463217#1 14463217#2 83668214#0 83668214#1 43798350 7712497 24507449 4307822#0 4307822#1 4307822#2 38448424#0 38448424#1 38448424#2 43410320 43410321#0 43410321#1 43410322#0 43410322#1 4950642#0 4950642#2 4950642#3 4950642#4 33580892 131443344 131443345#0 131443345#1 26630160#0 26630160#2 26630160#3 26630160#4 26630160#5 72247187#0 72247187#1 4487841 131450463 72247218#0 72247218#1 72247218#2 72247184 72247177 131450464#0 131450464#1 7593899 43407380#0 43407380#1 43407380#2 195168701#3 195168701#4"/>
    </vehicle>
    <vehicle id="28" depart="16.13">
        <route edges="44737274#7 181982237#0 181982237#1 181982237#2 181982237#3 24253753#0 24253753#2 53321070#0 53321070#1 53321074#0 53321074#1 53321073#0 53321073#1 -7971535 -7971516 -7971525 14567697#0 14567697#2 14567697#3 14567697#4 23573143#4 14567951#5 14567951#6 14567951#7 137519646#0 137519646#1 137519646#2 137519646#3 137519646#4 137519646#5 137519646#6 137519646#7 31784766#0"/>
    </vehicle>
    <vehicle id="29" depart="16.70">
        <route edges="4487907#2 4487907#3 192162053 45314134#0 45314134#1 67605423 44536106 131451851 62695885#0 62695885#1 62695885#2 62695885#3 45314176#0 45314176#1 45314183 45314185#0 45314185#1 15219001 30385988 45314230#0 45314230#1 14483633 71079772#0 71079772#1 14483666#0 14483666#1 14483666#2 123625794#0 123625794#1 123625793 71079781 44336480#0 44336480#1 7732124#0 7732124#1 7732124#2 7732124#3 7732115#0 7732115#1 44571137#0 118934456#1 31784355#0 31784355#1 44335669#4 44335669#5 44536988#0 44536988#1 44536988#2 44536988#3 9934004#0 11074834#0 163577079#0 163577079#1 163577079#2 163577079#3 9934157#1 9934157#2 9940952#5 43760124 43410342#0 43410342#2 43410342#4 43410342#5 9938952#3 9939284#1 9938944#7"/>
    </vehicle>
    <vehicle id="30" depart="17.28">
        <route edges="118988828#0 44536988#0 44536988#1 44536988#2 44536988#3 9934004#0 11074834#0 11074834#2 11074834#3 116693055#1 116693055#2 116693055#3 116693046 116693077 116693069#1 116693069#2 116693031 7971503#5 32025213 32025214#0 32025214#1 32025214#2 32025214#3 32025214#5 14482135#0"/>
    </vehicle>
    <vehicle id="31" depart="17.86">
        <route edges="9934287#1 27769136#0 109238270#2 74017969 46827290#0 46827290#1 118988830#0 118988830#1 118988830#2 46827291#0 46827291#1 46827291#2 11102141#0 11102141#1 11102141#2 11102141#3 11102141#4 11102141#5 11102141#6 11102141#7 -11105757#7 -11105757#6 -11105757#5 -11105757#4 -11105757#3 13025073#0 13025206#0 13025206#1 13025248#0 13025248#1 13025248#2 137355372#1 137355372#2 13029591 67491756#0 67491756#1 67491756#2 -43798334#1 -43798334#0 67496458 27125326 45756886#0 45756886#1 11476346#0 11476346#1 14590556#0"/>
    </vehicle>
    <vehicle id="32" depart="18.43">
        <route edges="-43407384#1 43407384#1 4489142#0 4489142#1 4489142#2 43407382 45757399#0 45757399#1 32028463 32028465 14481464 71054752#0 71054752#1 71054752#2 71054752#3 32025211 7732121#0 7732121#1 7732121#2 7732121#3 7732120#0 7732120#1 7732116#0 7732116#1 118934457 118934456#0 118934456#1"/>
    </vehicle>
    <vehicle id="33" depart="19.01">
        <route edges="45314185#1 45314189#0 45314189#1 45314189#2 45314189#3 71270052 44335074#0 44335074#1 24560661 109462880#0 109462880#1 109462880#2 109462880#3 109462880#5 109462880#6 109462880#8 107088310#4 107088310#5 107088310#6 31784766#0 31784766#1 31784765#0 31784765#1 109462878#0 109462878#1 109462878#2 109462878#3 109462878#4 109462878#5 109462878#6 109462878#7 109462878#8 109462878#9 -109462900#1 -109462900#0 -109462895 -109462887 4526341#2"/>
    </vehicle>
    <vehicle id="34" depart="19.58">
        <route edges="4491031#0 4491031#1 4321666#0 24225793#1 24225793#2 24225793#4 7642851 43410335#0 43410335#1 44737274#0 44737274#1 44737274#2 44737274#3 44737274#4 44737274#5 44737274#6 44737274#7 181982237#0 181982237#1 181982237#2 181982237#3 24253753#0 24253753#2 53321070#0 53321070#1 53321074#0 53321074#1 53321073#0 53321073#1 -7971535 -7971516 -7971525 44336478#0 14567951#0 14567951#2 14567951#3 14567951#4"/>
    </vehicle>
    <vehicle id="35" depart="20.16">
        <route edges="109462878#5 109462878#6 109462878#7 109462878#8 109462878#9 109462886 137519645#0 137519645#1 137519645#2 137519645#3 137519644#0 137519644#1 137519644#2 137519644#3 137519644#4 137519642#0 137519642#1 137519643#0 137519643#1 137519643#2 137206572#0 137206572#1 137206572#2 137206572#3 137206572#4 137206572#5 137206572#6 137206572#7 137206572#8 137206572#9 137206572#10 137206572#11 137206572#12 137206572#13 137206572#14 137206572#15 137206572#16 137206572#17 137206572#18 137216217#1 137216217#2 71270047#2 71270047#3 71270047#4 71270047#5 71270047#6 71270047#7 71079765#0 71079765#1 31784875 14483891#0 14483891#1 14483891#2 14483891#3 71079772#0 44167895#5 44167895#6 14579126#1 14579126#2 14579126#3 14579126#4 14579126#5 14579126#6 14579126#7 14579126#8 14579126#9 -14579126#9"/>
    </vehicle>
    <vehicle id="36" depart="20.74">
        <route edges="43760102#0 32025212#0 32025212#2 32025212#3 11074248#0 30691101#0 30691101#1 10044099#0 9941126#1 9941126#2 9941126#3 32029327#0 32029327#1 32029327#2 32029327#3 32029327#4 32029327#5 32029327#6 137200184 4339396#0 4339396#1 30625558 77065964 77065975#0 77065975#1 77065975#2 32028467#0 32028467#1 45757396 98561793 45757400#0"/>
    </vehicle>
    <vehicle id="37" depart="21.31">
        <route edges="164369278#0 164369278#1 43759950#0 43759950#1 53321077#0 131553936#0 11341598#0 11341598#1 43798345 44335071#0 44335071#2 7732132#0 7732132#1 7732148#0 30993406#0 30993406#1 7732157#0 7732157#2 7732157#3 24253745#7 24253745#9 24253745#10 24253745#11 24253745#12 24253745#13 24253745#14 118934457 118934456#0 44571137#1 7732118#0 7732118#1 7971503#0 7971503#2 7971503#3 7971503#4 7971503#5 32025213 -32025212#10 -32025212#9 -32025212#8 -32025212#7 -32025212#6 -32025212#5 -32025212#4 -32025212#3 30764315#0 30764313#2"/>
    </vehicle>
    <vehicle id="38" depart="21.89">
        <route edges="43410334#1 43410334#3 8029934#0 8029934#1 -11101396#0 43410336#0 43410336#1 -11101490 43410335#0 43410335#1 44737275#0 44737275#1 44737275#2 45764848#0 45764848#1 45764848#2 45764848#3 44737277#0 44737277#1 44737277#2 43410338 71055297#0 71055297#1 71019433 71019462 137200185 -32029327#6 -32029327#5 -32029327#4 -32029327#3 -32029327#2 -32029327#1 -32029327#0 -32029326 -82567739#3 -82567739#2 -82567739#1 -82567739#0 11069946#0 11069946#1"/>
    </vehicle>
    <vehicle id="39" depart="22.46">
        <route edges="27769136#2 -9934175#1 -9934175#0 9934191 32195452#0 32195452#1 118988838 32195456#0 31784353#0 31784353#1 31784357#0 31784357#1 31784357#2 31784357#3 31784357#4 8014111#0 8014111#2 8014111#3 8014111#4 44335671#1 44335671#2 131504893#0 131504893#1 131504893#2 31784479#0 31784479#1 131504884#0 131504884#1 27125326 45756886#0 11476781#0 11476781#1 11476781#2 14580416#5 14586450#0"/>
    </vehicle>
    <vehicle id="40" depart="23.04">
        <route edges="71054744 14484308 24447169 24447170#0 24447170#1 24560661 109462880#0 109462880#1 109462880#2 109462880#3 109462880#5 109462880#6 109462880#8 107088310#4 107088310#5 107088310#6 31784766#0 31784766#1 31784764#0 137216212 -43405585#2 -43405585#1 -43405585#0 -43405584#3 14567301#8 14567301#9 14567301#10"/>
    </vehicle>
    <vehicle id="41" depart="23.62">
        <route edges="32028843#0 4946758 107078365#0 107078365#2 107078365#4 107078365#5 107078365#6 107078365#7 107078365#8 104340968#0 104340968#1 104340968#2 104340968#3 104340968#4 104340968#5 104340968#6 7971920#0 7971920#1 45764844#5 7642851 43410335#0 43410335#1 44737274#0 44737274#1 44737274#2 44737274#3 44737274#4 44737274#5 44737274#6 44737274#7 181982237#0 181982237#1 181982237#2 181982237#3 44335072#0 44335072#1 11342060#0 11342060#1 11341864#0 11341864#1 11341864#2 11341864#3 11341864#4 32840924 32840925#0 32840925#1 32840925#2 32840925#3 32840925#4 32840925#5 32840925#6 137206572#16 137206572#17 137206572#18 137216217#1 137216217#2 71270047#2 187906385#2 30385991"/>
    </vehicle>
    <vehicle id="42" depart="24.19">
        <route edges="32606920 32666310#0 32666310#1 43410318 4334159 4352977 -83668214#1 -83668214#0 -83668210 -164369260 164369261 44884574#2 86974742#0 86974742#1 121797007 123625796#0 123625796#2 123625796#3 123625796#4 123625796#5 123625796#6 123625796#7 123625796#8 123625796#9 123625796#10 123625796#11 123625796#12 123625796#13 123625796#14 131451851 14577912#0 14577982#0 14577982#1 85518576#4"/>
    </vehicle>
    <vehicle id="43" depart="24.77">
        <route edges="-11477471#0 11477764#3 11477764#4 11477764#5 11477764#6 11477764#7 11477764#8 11477764#9 43798339 11477904#0 11477904#1 44336482#0 44336482#1 31783667#0 31783667#1 31783668#0 31783668#1 31783668#2 31783668#3 -67496458 43798334#0 43798334#1 43800039#0 43800039#1 43800046#0 43800046#1 13025750#1 13025750#2 11498624#0"/>
    </vehicle>
    <vehicle id="44" depart="25.34">
        <route edges="11070000#8 11070000#9 11070000#10 -82567739#0 -43410339 9939408#0 9939408#1 9939408#2 9939408#3 9934011#0 9934011#1 9934011#2 43410344 43760103#0 43760102#0 43760102#1 43760102#2 43760102#3 45756882#0 45756882#1 45756882#2 31784357#0 31784357#1 31784357#2 31784357#3 31784357#4 8014111#0 8014111#2 8014111#3 8014111#4 44335671#1 44335671#2 131504893#0 131504893#1 131504893#2 31784479#0 11105772#1 11105772#2 11477601#2 11477601#3 11477601#4 43798337#0 -11477667#1 -11477667#0 -11477742#4 -11477742#3 -11477742#2 32025088#2 11477764#6 14579227#0 14579227#1 14579227#2 -14579239#0 44167990#2"/>
    </vehicle>
    <vehicle id="45" depart="25.92">
        <route edges="14463039#0 24585667#15 14463070#2 14463070#3 14463070#4 14463274#0 14463274#1 14463274#2 76817092#6 76817092#7 106343219#0 106343219#2 106343219#3 53321072#0 53321072#1 53321077#0 131553936#0 131553936#2 131497921#0 131497921#1 131497921#2 24253745#0 24253745#2 164298252#0 7732132#1 7732148#0 30993406#0 30993406#1 7732157#0 163805459#2 163805455 163805460#0 163805460#2 7732117 7732113#0 11340502#0 11340476#0 11340476#1 11379461#0 116694367 116695651 116694379 116694384#1 116694384#2 116694396#1 116694368"/>
    </vehicle>
    <vehicle id="46" depart="26.50">
        <route edges="4491032#3 4491032#4 4491032#5 4491032#6 4491032#7 107078361#7 107078361#8 107078361#9 107078361#10 43407389 43407390#0 43407390#1 -44335064#1 -44335064#0 -104340974 -4489368 4946758 107078365#0 107078365#2 107078365#4 107078365#5 107078365#6 107078365#7 107078365#8 104340957 104340973#2 104340973#3 104340973#4 32028466 32028467#0 32028467#1 45757396 98561764#0 98561764#1 98561764#2 98561764#3 98561764#4 98561779#0 98561779#1 98561773#0 98561773#1"/>
    </vehicle>
    <vehicle id="47" depart="27.07">
        <route edges="13024990#1 -11105757#3 13025073#0 13025206#0 13025206#1 13025248#0 13025248#1 13025248#2 137355372#1 137355372#2 13029591 67491756#0 67491756#1 67491756#2 -43798334#1 -43798334#0 67496458 -31783668#3 -31783668#2 -31783668#1 -31783668#0 -31783667#1 -31783667#0 27927581#0 11477860#0 11477860#1 14585829#0 14585829#1 14585829#2 14585829#3 14585829#4 14585829#5 14585829#6 -43405602#1 -43405602#0 -43405601#2 -43405601#1 -43405601#0 -71270050#6 -71270050#5 -71270050#4 79290403#4 79290403#5 79290403#7 79290403#8 15090780 15090776#5 -15090775#0 15090741#3"/>
    </vehicle>
    <vehicle id="48" depart="27.65">
        <route edges="-11499089 11499089 7990966#2 7990966#3 9934195 9934191 32195452#0 32195452#1 118988838 32195456#0 31784353#0 31784353#1 31784354#0 31784354#2 31784354#4 44536989#0 43798342#0 7732116#1 118934455 7732125#0 7732125#2 7732125#3 7732125#4 14484711#0 14484711#1 14484711#2 44336479#0 44336479#1 14483931#0 14483931#1 123625795#0 123625795#1 71054750#0 71054750#1 71054744 14484308 131493290 192162053 14567741 -45314138 -44536103 -4645470#7 -4645470#5 -4645470#4"/>
    </vehicle>
    <vehicle id="49" depart="28.22">