<?xml version="1.0"?>

<!-- generated on Thu Jul 11 13:58:23 2013 by SUMO duarouter Version 0.15.0
<?xml version="1.0" encoding="UTF-8"?>

<configuration xmlns:xsi="http://www.w3.org/2001/XMLSchema-instance" xsi:noNamespaceSchemaLocation="http://sumo.sf.net/xsd/duarouterConfiguration.xsd">

    <input>
        <net-file value="madrid.net.xml"/>
        <alternative-files value="4-2000-madrid_prueba_028.rou.alt.xml"/>
        <weight-files value="dump_028_900.xml"/>
    </input>

    <output>
        <output-file value="4-2000-madrid_prueba_029.rou.xml"/>
        <vtype-output value=""/>
        <exit-times value="false"/>
    </output>

    <processing>
        <ignore-errors value="true"/>
        <max-alternatives value="5"/>
        <with-taz value="false"/>
        <routing-algorithm value="astar"/>
        <gawron.beta value="0.9"/>
        <gawron.a value="0.5"/>
        <keep-all-routes value="false"/>
        <logit value="false"/>
        <logit.beta value="0.15"/>
        <logit.gamma value="1"/>
    </processing>

    <time>
        <begin value="0"/>
    </time>

    <report>
        <verbose value="false"/>
        <no-warnings value="true"/>
        <no-step-log value="true"/>
    </report>

    <random_number>
        <random value="false"/>
    </random_number>

</configuration>
-->

<routes xmlns:xsi="http://www.w3.org/2001/XMLSchema-instance" xsi:noNamespaceSchemaLocation="http://sumo.sf.net/xsd/routes_file.xsd">
    <vehicle id="0" depart="0.00">
        <route edges="8029903#9 8029715#2 8029920#12 8029920#13 8029712#2 11378355 45764846#0 45764846#1 45764846#2 45764846#3 45764846#4 85328237 7732121#1 7732121#2 7732121#3 7732120#0 7732120#1 7732116#0 7732116#1 118934455 7732117 7732113#0 11340502#0 11340502#1 11340425#0 11340425#1 11340425#2 11340425#3 11340533 131504893#0 131504893#1 131504893#2 58692956#0 58692956#1 11105765 11105757#0 11105757#1 11105757#2 13025073#0 13025073#1 13025073#2 -13024910#2 -13024910#1 -13024910#0 29157239#1 29157239#2 44334524#0 44334524#1 31783683 43798331#0 43798331#1 43798332#0 43798332#1"/>
    </vehicle>
    <vehicle id="1" depart="1.73">
        <route edges="-43798334#1 -43798334#0 27125327#0 27125327#1 32025057#0 32025057#1 32025055#0 32025055#1 58692956#1 58692956#2 58692956#3 58692956#4 58692956#5 31784481#0 31784481#1 31784481#2 44335669#0 44335669#1 44335669#2 44335669#3 44335669#4 44335669#5 44536988#0 44536988#1 44536988#2 44536988#3 9934004#0 11074834#0 9933940#0 9934004#4 9934004#5 9934004#6 9934004#7 9934004#8 9934004#9 9934004#10 -45756878 9939389#0 9939389#1 9939389#3 11069715#0 11069715#1 11069715#2 11069715#3 11069715#4 182693925#0 182693925#1 -11069711#5 -11069711#4 -11069711#3 -11070935#2 -11070935#1 11070935#1"/>
    </vehicle>
    <vehicle id="2" depart="3.46">
        <route edges="14485666#1 14485666#2 44167871#0 44167871#1 102494324#0 32840922#0 7971519 7971518 7971535 43759950#0 43759950#1 53321075#0 53321075#1 53321083#0 53321083#1 43759953#0 43759953#2 136124308#0 136124308#1 136124308#2 136124308#3 136124311#0 136124311#1 136124311#3 164369270#0 164369267#0 164369267#2 164369267#4 164369267#5 164369269 4334163#0 4334163#1 7972177#0 -4487498#3 32897810#0"/>
    </vehicle>
    <vehicle id="3" depart="5.18">
        <route edges="44167895#6 14579126#1 14579091#1 44167895#8 11477831#0 11477831#1 11477764#0 11477764#1 11477764#2 11477764#3 11477764#4 -11477752#1 11477742#1 11477742#2 -56323527 11477632#6 11477632#7 11477632#8 11477632#9 11105785#4 -11477601#4 -11477601#3 -11477601#2 -11477601#1 -11477601#0 -13028902 32025056 188083821 13028985#0 13028985#1 13029086 13029189#0 13029189#1 13029189#2 13029189#3 13029189#4 -13029230 -13029285 13024789#0 13024789#1 13024789#2 13024789#3 13024789#4 13024789#5 13024789#6 44334521 11102038"/>
    </vehicle>
    <vehicle id="4" depart="6.91">
        <route edges="-77065977#1 77065977#1 77065977#2 98561773#1 98561799#0 98561799#1 -45757395#10 -48501842#2 11071026#2 -45757395#8 11071787 -11070369 11069854#0 11069854#1 11069854#2 -87425108#2 -11069871#0 11069854#4 11069854#5 11069854#6 11069854#7 9939408#0 9939408#1 9939408#2 9939408#3 9934011#0 9934011#1 9934011#2 43410344 43760103#0 43760102#0 43760102#1 43760102#2 43760102#3 45756882#0 45756882#1 45756882#2 31784357#0 31784357#1 31784357#2 31784357#3 31784357#4 8014111#0 8014111#2 8014111#3 8014111#4 44335671#1 44335671#2 131504893#0 11477389#0 11477389#1 11477389#2 56323519#0 -56323526 -11477415#3 -11477415#2 -48503864#0 -48503839#0"/>
    </vehicle>
    <vehicle id="5" depart="8.64">
        <route edges="56323530#1 56323520#3 43798337#7 43798337#8 43798337#9 43798341#0 43798341#1 14484711#0 14484711#1 24829805 123625798#0 123625798#1 123625798#2 -7732155#1 -7732155#0 7732136#0 7732136#1 7732157#0 7732157#2 7732157#3 7732157#4 7732157#5 7732157#6 7732157#7 24585667#0 24585667#1 24585667#2 24585667#3 24585667#4 24585667#5 24585667#6 24585667#7 24585667#8 24585667#9 -83668215 -43759960 -43759962 -14771608 -195664262 -195664261#1 -195664261#0 -131443341 24222352 116931097 16183492#1 116931094 32649171 24535747#0 24535747#1 -4307816 32606916#0 4307817#0 4307817#1 7643040"/>
    </vehicle>
    <vehicle id="6" depart="10.37">
        <route edges="43405583#0 43405583#1 43405583#2 43405583#4 43405583#5 43405583#6 43405583#7 43405583#8 43405583#9 44167895#0 44167895#1 44167895#2 44167895#3 44167895#4 71079772#1 71079776 32025213 -32025212#10 -32025212#9 -85328244 9939505#1 9939505#2 9939505#3 9939505#4 9939505#5 9939505#6 9939505#7 9939505#8 -32029327#3 -32029327#2 -32029327#1 -32029327#0 -32029326 -82567739#3 -82567739#2 -82567739#1 -82567739#0 -43410339 -45756877#1 -45756877#0 -70810663"/>
    </vehicle>
    <vehicle id="7" depart="12.10">
        <route edges="136841239#1 -136841239#1 -136841239#0 -32606716#1 -32606716#0 -32649171 -116931094 -14460750 -16183492#0 -24222352 131443341 195664261#0 195664261#1 195664262 14771608 14481788#0 14481788#1 14481788#2 14481788#3 14481788#4 14481788#5 14481788#6 8029715#1 8029903#10"/>
    </vehicle>
    <vehicle id="8" depart="13.82">
        <route edges="164298257#0 164298257#2 181982237#2 181982237#3 44335072#0 44335072#1 11342060#0 11342060#1 11341864#0 11341864#1 11341864#2 11341864#3 11341864#4 14486405#0 14486405#1 14486405#2 44167895#0 44167895#1 44167895#2 44167895#3 44167895#4 44167895#5 14579286#0 14579026#1 14579026#2 14579026#3 14579026#4 14579026#5 14579026#6 14579043#0 14579043#1 -43405604#2 137206565#5 137206565#6 137206565#7 137206565#8 137206569 27927581#0 11477860#0 11477860#1 14585829#0 14585829#1 14585829#2 14585829#3"/>
    </vehicle>
    <vehicle id="9" depart="15.55">
        <route edges="11103994#3 11104389 58692956#5 31784481#0 31784481#1 31784481#2 44335669#0 44335669#1 44335669#2 44335669#3 44335669#4 44335669#5 44536988#0 44536988#1 44536988#2 44536988#3 9934004#0 9934004#2 9934004#4 9934004#5 9934004#6 9934004#7 9934004#8 9934004#9 9934004#10 -45756878 9939389#0 9939389#1 9939389#3 11069715#0 11069715#1 10643292#0 10643292#1 11069711#9 11069718#0 -11087113 30693242#2"/>
    </vehicle>
    <vehicle id="10" depart="17.28">
        <route edges="4489518#1 44335065#1 44335065#2 44335065#3 44335067#0 4491033 4319325#1 4319325#2 24225793#0 24225793#1 24225793#2 24225793#4 7642851 43410335#0 43410335#1 44737274#0 8029884#0 8029884#1 131431668#7"/>
    </vehicle>
    <vehicle id="11" depart="19.01">
        <route edges="11070084#1 7971959#4 11070000#9 11070000#10 -82567739#0 -43410339 9939408#0 9939408#1 9939408#2 9939408#3 9934011#0 9934011#1 9934011#2 43410344 43760103#0 43760102#0 43760102#1 43760102#2 43760102#3 45756882#0 45756882#1 45756882#2 31784357#0 31784357#1 31784357#2 31784357#3 31784357#4 8014111#0 8014111#2 8014111#3 8014111#4 44335671#1 44335671#2 131504893#0 131504893#1 131504893#2 31784479#0 31784479#1 11477601#0 11477601#1 11477601#2 11477601#3 11477601#4 43798337#0 -11477667#1 -11477667#0 11477742#5"/>
    </vehicle>
    <vehicle id="12" depart="20.74">
        <route edges="45764843#1 45764843#2 34378919#1 164298257#2 181982237#2 181982237#3 24253753#0 24253753#2 53321070#0 53321070#1 53321067#0 53321067#2 53321067#4 53321067#5 14463274#2 14463274#3 14463274#4 6601764 43405582#1 43405582#2 4526344#2 4526344#4 14567301#11 109462899 109462887 109462895 109462900#0 109462900#1 109462886 137519639#0 137519639#1 137519639#2 109462888 109462892 -131700744"/>
    </vehicle>
    <vehicle id="13" depart="22.46">
        <route edges="137206565#3 137206565#4 43405604#2 44167990#4 44167990#6 44167990#7 44167989#0 44167989#1 45314235#0 45314235#1 45314238#1 45314238#2 45314238#3 137206570#0 137206570#1 137206570#2 137206570#3 137206570#4 32840925#6 32840925#7 32840925#8 32840925#9 4487907#0 4487907#1 4487907#2 4487907#3 192162053 45314134#0 45314134#1 6601805#0 6601805#1 6601805#3 6601805#4 6601805#5 6601805#6 6601805#7 6601805#8"/>
    </vehicle>
    <vehicle id="14" depart="24.19">
        <route edges="9939448#4 9939448#5 9939448#6 9939448#7 9939448#8 9939448#9 9934011#0 9934011#1 9934011#2 43410344 43760103#0 43760102#0 43760102#1 43760102#2 43760102#3 45756882#0 45756882#1 45756882#2 31784354#0 31784354#2 31784354#4 44536989#0 43798342#0 43798342#1 43798342#2 43798344#0 43798344#1 43798344#2 43798344#4 43798344#5 43798344#6 43798344#7 43798344#8 43798344#10 43798344#11 43798344#12 43798344#15 131553941#2 24253753#0 24253753#2 53321070#0 53321070#1 53321067#0 53321067#2 53321067#4 53321067#5 14463274#2 14463274#3 14463274#4 6601764 133150561#0 133150561#2 133150561#3 133150561#4 23573143#11 23573143#12 4526344#7 109462882#1 137519638#1"/>
    </vehicle>
    <vehicle id="15" depart="25.92">
        <route edges="-43405585#1 43405585#1 43405585#2 137216214 43405586#0 43405586#1 31784763#0 137519642#0 137519642#1 137519643#0 137519643#1 137519643#2 137206572#0 137206572#1 137206572#2 137206572#3 137206572#4 137206572#5 137206572#6 137206572#7 137206572#8 137206572#9 137206572#10 137206572#11 137206572#12 137206572#13 137206572#14 137206572#15 137206572#16 137206572#17 137206572#18 137216217#1 137216217#2 137216217#3 137216217#4 137216217#5 137216217#6 137206566 137206565#0 137206565#1 137206565#2 137206565#3 137206565#4 137206565#5 137206565#6 137206565#7 137206565#8 137206569 31783667#0 31783667#1 31783668#0 31783668#1 31783668#2 31783668#3 27125326 45756886#0 45756886#1 11476346#0 11476346#1 14590556#0 14590556#1 -14590481 14590283#2 14590417#0 14590417#1 14590417#2 -79433808#1 14590172#0 14590172#1 14590172#2 14590237 14589934#6"/>
    </vehicle>
    <vehicle id="16" depart="27.65">
        <route edges="137355370#1 137355370#2 137355370#3 137355372#0 137355372#1 137355372#2 13029591 43800044 -13029189#7 -13029189#6 -13029189#5 -13029189#4 -13029189#3 -13029189#2 -13029189#1 -13029189#0 13029111 43798335#0 43798335#1 149789875 -32025056 13028902 11477601#0 11477601#1 11477601#2 11477601#3 11477601#4 43798337#0 43798337#1 43798337#2 43798337#3 43798337#4 43798337#5 43798337#6 43798337#7 43798337#8 43798337#9 43798341#0 43798341#1 14484711#0 14484711#1 14484711#2 4680727#0 4680727#1 4680727#2 4680727#3 4680727#4 44167871#0 44167871#1 102494324#0 102494324#1 102494324#2 44336478#0 44336478#1 44336478#2 44336478#3 -106343228#1 -106343228#0 4638449#0 106343219#0 106343219#2 106343219#3"/>
    </vehicle>
    <vehicle id="17" depart="29.38">
        <route edges="98561767#2 98561767#3 119023670#0 119023670#1 -98561773#1 -98561773#0 -98561779#1 -98561779#0 98561777#0 98561777#1 98561777#2 98561777#3 45757400#0 45757400#1 32025283 32025284#0 32025284#1 32025284#2 4946757#0 4946757#1 4946757#2 4946757#3 4946757#4 4946757#5 4946757#9 104340961#0 4489368 104340974 44335064#0 44335064#1 43407388 43407387 165468884#0 165468884#1 165468283#0 165468283#1 136730698 4489369#0 4489369#1 7971630#0 7971630#1 71554260 71554252 136730697 -43405567#2 -43405567#1 -43405567#0 4319194 7649062 46098091#1 46098091#2 65167029 -135311411 -172382362 -172550739"/>
    </vehicle>
    <vehicle id="18" depart="31.10">
        <route edges="4946754#3 98561802#1 98561767#0 98561767#1 98561767#2 98561767#3 119023670#0 119023670#1 -98561773#1 -98561773#0 -98561779#1 -98561779#0 98561777#0 98561777#1 98561777#2 98561777#3 45757400#0 45757400#1 32025283 32028463 30625550#0 30625550#1 30625550#2 30625550#4 45764850 43410337#0 43410337#1 43410338 14482098 131493286#0 131493286#1 131493287#0 131493287#1 131493287#2 131493287#3 71054752#0 24469940#0 11099985#4"/>
    </vehicle>
    <vehicle id="19" depart="32.83">
        <route edges="43760102#0 32025212#0 32025212#2 32025212#3 32025212#4 32025212#5 32025212#6 32025212#7 32025212#8 32025212#9 32025212#10 9933911 8029903#0 8029903#2 8029903#3 8029903#4 8029903#5 8029903#6 8029903#7 8029903#8 8029903#9 8029903#10 8029903#11 8029903#12 8029903#13 8029903#14 -43759962 -14771608 -195664262 -195664261#1 -195664261#0 -131443341 -44737271 -11101396#1"/>
    </vehicle>
    <vehicle id="21" depart="36.29">
        <route edges="131431668#2 131431668#3 131431668#4 131431668#5 131431668#6 131431668#7 44737275#0 44737275#1 44737275#2 45764848#0 45764848#1 45764848#2 45764848#3 44737277#0 -600981 7971917#2 7971917#3"/>
    </vehicle>
    <vehicle id="23" depart="39.74">
        <route edges="195286071 -11069711#10 -11069711#9 -11069711#8 -11069711#7 -11069711#6 -11069711#5 -11069711#4 -11069711#3 -11069711#2 -11069711#1 -11069711#0 -45757395#6 -45757395#5 -45757395#4 -45757395#3 -45757395#2 -45757395#1 -45757395#0 45757396 98561793 45757400#0 45757400#1 32025283 32025284#0 32025284#1 32025284#2 4946757#0 4946757#1 4946757#2 4946757#3 4946757#4 4946757#5 4946757#9 104340961#0 4489368 104340974 44335065#0 44335065#1 44335065#2 44335065#3 44335066#0 44335066#1 44335066#2 44335066#3 44335066#4 44335066#5 44335066#6 44335066#7 107078360#0 107078360#1 107078360#2 4487841 131450463 33760307#4"/>
    </vehicle>
    <vehicle id="24" depart="41.47">
        <route edges="-13029189#7 -13029189#6 -13029189#5 -13029189#4 -13029189#3 -13029189#2 -13029189#1 -13029189#0 13029111 43798335#0 43798335#1 149789875 -32025056 13028902 11477601#0 11477601#1 11477601#2 11477601#3 11477601#4 43798337#0 43798337#1 43798337#2 43798337#3 43798337#4 43798337#5 -11477471#1 -11477632#1 -11477632#0 32025120#1"/>
    </vehicle>
    <vehicle id="25" depart="43.20">
        <route edges="4526344#7 109462882#1 137519638#1 137519638#2 4526341#4 4526341#5 -43405584#3 -43405584#2 -43405584#1 -106343228#1 -106343228#0 4638449#0 4638449#2 4638449#3 4638449#4 14463217#0 14463217#1 14463217#2 14463039#0 14463039#1 8029920#1 8029920#2 8029920#3 8029920#4 8029920#5 -43759960 -43759962 -14771608 131431668#4 131431668#5 131431668#6 131431668#7 44737275#0 44737275#1 44737275#2 45764847#0 45764847#1 45764847#2 7971918#0 7971918#1 44335068#0 4946755#0 4946755#1 4946755#2 4946755#3 4946755#4 104340973#0 104340973#1 104340973#2 104340973#3 104340973#4 32028466 32025281 32025282#0 32025282#1 32028504 32028503 4314418 131543165#1 4489451#0"/>
    </vehicle>
    <vehicle id="26" depart="44.93">
        <route edges="30812601#3 7971505#1 7642992#3 14463070#3 14463070#4 14463274#0 14463274#1 14463274#2 76817092#6 76817092#7 106343219#0 106343219#2 106343219#3 53321072#0 53321072#1 53321077#0 131553936#0 131553936#2 131497921#0 131497921#1 131497921#2 24253745#0 24253745#2 164298252#0 7732132#1 7732148#0 30993406#0 30993406#1 7732157#0 163805459#2 163805455 163805460#0 163805460#2 7732117 7732113#0 11340502#0 11340502#1 11340425#0 11340425#1 11340425#2 11340425#3 11340533 131504893#0 131504893#1 131504893#2 58692956#0 58692956#1 11105765 11105757#0 11105757#1 11105757#2 13025073#0 13025206#0 13025163#2"/>
    </vehicle>
    <vehicle id="27" depart="46.66">
        <route edges="31784481#0 31784481#1 31784481#2 44335669#0 44335669#1 44335669#2 44335669#3 44335669#4 44335669#5 44536987#0 44536987#1 45756882#2 31784354#0 31784354#2 31784354#4 44536989#0 43798342#0 43798342#1 43798342#2 43798344#0 43798344#1 43798344#2 43798344#4 43798344#5 43798344#6 43798344#7 7732138#0 7732157#7 24585667#0 24585667#1 24585667#2 24585667#3 24585667#4 24585667#5 24585667#6 24585667#7 24585667#8 24585667#9 -83668215 -43759960 -43759962 -14771608 -195664262 -195664261#1 -195664261#0 -131443341 -44336476 -7971523 14459910 44336477 131431680 4321668 8098348 8098344 8098349#0 8098349#1 8098349#2 -8098313#1 -8098313#0 8098307 131443345#0 131443345#1 33580888 33580890 4950693#0 4950693#1 4950693#2 4950752#1 4950752#2 4950752#3 61678014#3"/>
    </vehicle>
    <vehicle id="28" depart="48.38">
        <route edges="4487907#0 4487907#1 4487907#2 4487907#3 192162053 45314134#0 -44536104 -45314138 -44536103 131451848#0 131451848#1 131451848#2 131451848#3 131451848#4 131451848#5 131451848#6 131451848#7 131451848#8 131451848#9 131451848#10 131451848#11 -121797007 4290639#0 4290639#1 131451860#0 164369263 -83668208 -43798348 -83668212 -83668215 -43759960 -43759962 -14771608 -195664262 -195664261#1 -195664261#0 -131443341 -44336476 -7971523 14459910 44336477 131431680 27926842 -8031768 14459386 161638119#1 161638119#2 14459472 24619376#4 53323771#0 53323771#1 4321666#8 4321666#9 4321666#10 4950794#0 131553923#2"/>
    </vehicle>
    <vehicle id="29" depart="50.11">
        <route edges="4491031#0 4491031#1 4321666#0 24225793#1 24225793#2 24225793#4 7642851 43410335#0 43410335#1 44737274#0 44737274#1 44737274#2 44737274#3 44737274#4 44737274#5 44737274#6 44737274#7 181982237#0 181982237#1 181982237#2 181982237#3 44335072#0 44335072#1 11342060#0 11342060#1 11341864#0 11341864#1 11341864#2 11341864#3 11341864#4 32840924 32840925#0 14567301#0 14567503#4 23573143#3 23573143#4 23573143#5 131451848#8"/>
    </vehicle>
    <vehicle id="30" depart="51.84">
        <route edges="80240819 80240820#2 80240820#3 29499410#2 29499410#4 29499410#6 29499410#7 4950643#3 4950643#4 4950641#0 4950641#1 43410319#0 43410319#1 43410320 43410321#0 43410321#1 43410322#0 43410322#1 4950642#0 4950642#2 4950642#3 4950642#4 33580892 8098304 8098313#0 8098313#1 24619376#0 24619376#1 14459504#0 161638119#0 161638119#1 161793152 14459399 136736904#2 136736904#3 136736904#4 136736904#5 43407392#0 4314421#3 4314421#4 4314421#5 4314421#6 107078361#5 107078361#6 107078361#7 107078361#8 107078361#9 107078361#10 43407389 43407390#0 43407390#1 43407388 4489422#0 4489422#1 -43407385 4489424 165469577 43407384#0"/>
    </vehicle>
    <vehicle id="31" depart="53.57">
        <route edges="43407369#1 -44508937#5 -44508937#4 -44508937#3 -44508937#1 79639780 79639781 -109462892 -109462888 -137519639#2 -137519639#1 -137519639#0 -109462886 -109462900#1 -109462900#0 -109462895 -109462887 4526341#2 4526341#3 4526341#4 4526341#5 -43405584#3 -43405584#2 -43405584#1 -106343228#1 -106343228#0 4638449#0 4638449#2 4638449#3 4638449#4 14463217#0 14463217#1 14463217#2 14463039#0 14463039#1 14463039#2 24812300#4 24812300#5 24812300#6 24812302#0 24812302#1 131431668#0 131431668#1 131431668#2 131431668#3 131431668#4 131431668#5 131431668#6 131431668#7 44737275#0 44737275#1 44737275#2 45764847#0 45764847#1 45764847#2 7971918#0 7971918#1 44335068#0 4946755#0 4946755#1 4946755#2 4946755#3 4946755#4 104340973#0 104340973#1 104340973#2 104340973#3 104340973#4 32028466 32025281 32025282#0 32025282#1 32028504 131497898 71078008#0 71078008#1 -43407384#1 15230921#0 15230921#1 15230921#2 15230921#3 15230966"/>
    </vehicle>
    <vehicle id="32" depart="55.30">
        <route edges="11101717#0 11101717#1 11101717#2 -195664261#1 -195664261#0 -131443341 -44336476 -7971523 14459910 44336477 131431680 27926842 27464019 44336472#0 44336472#1 44336472#2 4314421#1 4314421#2 4314421#3 4314421#4 107081344#0 107081344#1 44335067#2 -7643027 7643027"/>
    </vehicle>
    <vehicle id="33" depart="57.02">
        <route edges="62298635#2 -85817321 4526343#1 4680951#1 4680951#2 62298634 62298633 79639781 -109462892 -109462888 -137519639#2 -137519639#1 -137519639#0 -109462886 -109462900#1 -109462900#0 -109462895 -109462887 -109462899 -109462894#1 109462875#0 109462875#1 137519638#5 137519638#7 137519638#8 24536095#0 24536095#1 24536095#2 43759863#3 43759863#4 164369266#0 164369266#1 112538817#0 -31093152#1 -31093152#0 -4487498#3 -4487498#2 -4487498#0 4487680 76809473#0 76809473#1 174851638 -44884571#3 -44884571#2 -163743120 7642988#0"/>
    </vehicle>
    <vehicle id="34" depart="58.75">
        <route edges="82567733#2 9939213#0 9939213#1 9938952#2 -43410342#5 -43410342#4 -43410342#3 -43410342#1 -71246167#1 -9934157#3 -9940952#4 -9940952#3 -9940952#2 160829127#1 43760126#5 43760126#6 32025212#0 32025212#2 32025212#3 32025212#4 32025212#5 32025212#6 32025212#7 32025212#8 32025212#9 32025212#10 9933911 32025211 71054747 71054750#0 71054750#1 14483906#0 14483906#1 71054746#0 71054746#1 71054746#2 31784876#0 31784876#1 14566866#0"/>
    </vehicle>
    <vehicle id="35" depart="60.48">
        <route edges="4526344#2 109462875#1 137519638#5 137519638#7 137519638#8 24536095#0 24536095#1 24536095#2 24536095#3 24536095#4 7971505#0 7971505#1 7971505#2 7971505#3 43798350 43410315 4307822#0 4307822#1 4307822#2 38448424#0 38448424#1 38448424#2 43410320 43410321#0 43410321#1 43410322#0 43410322#1 4950642#0 4950642#2 4950642#3 4950642#4 33580892 131443344 131443345#0 131443345#1 26630160#0 26630160#2 26630160#3 26630160#4 26630160#5 72247187#0 72247187#1 4487841 131450463 72247218#0 72247218#1 72247218#2 72247184 72247177 131450464#0 131450464#1 7593899 43407379#0 7593896#0 7593896#1 7593896#2 7593896#3"/>
    </vehicle>
    <vehicle id="36" depart="62.21">
        <route edges="-30693243#0 11069732#0 11069732#1 30693242#0 30693242#1 30693242#2 70810680#0 70810680#1 70810663 45756877#0 45756877#1 9939408#0 9939408#1 9939408#2 9939408#3 9934011#0 9934011#1 9934011#2 43410344 43760103#0 43760102#0 43760102#1 43760102#2 43760102#3 45756882#0 45756882#1 45756882#2 31784357#0 31784357#1 31784357#2 31784357#3 31784357#4 8014111#0 8014111#2 8014111#3 8014111#4 44335671#1 44335671#2 131504893#0 131504893#1 131504893#2 31784479#0 31784479#1 131504884#0 131504884#1 -31783668#3 -31783668#2 -31783668#1 -31783668#0 -31783667#1 -31783667#0 137206567 44167990#0 44167990#1 44167990#2 44167990#3 -43405604#2 137206565#5 137206565#6 137206565#7"/>
    </vehicle>
    <vehicle id="37" depart="63.94">
        <route edges="14483891#0 14483891#1 14483891#2 14483891#3 71079772#0 71079772#1 71079776 32025213 32025214#0 32025214#1 32025214#2 32025214#3 32025214#5 71079791 14483223 32025281 32025282#0 32025282#1 32028504 131497898 15230950#0 15230948#1 15230934"/>
    </vehicle>
    <vehicle id="38" depart="65.66">
        <route edges="131493290 192162053 45314134#0 -44536104 -45314138 -44536103 -4645470#7 -4645470#5 -4645470#4 -4645470#3 -4645470#2 4526343#6 4526343#7 109462880#13 4526344#11 4526344#12"/>
    </vehicle>
    <vehicle id="39" depart="67.39">
        <route edges="-137519639#0 -109462886 -109462900#1 -109462900#0 -109462895 -109462887 4526341#2 4526341#3 4526341#4 4526341#5 43405583#0 43405583#1 43405583#2 131451848#9 131451848#10 131451848#11 -121797007 4290639#0 4290639#1 131451860#0 164369263 -83668208 14369724#4 14369724#5 43759953#2 106343229#0"/>
    </vehicle>
    <vehicle id="40" depart="69.12">
        <route edges="14567301#3 131451848#10 109462875#8 109462875#9 -14567697#1 7971525 7971524 -7971519 32840922#1 32840922#2 164369273#1 131553934#0 43798345 23689697#0 23689697#1 131497921#2 24253745#0 24253745#2 24253745#3 24253745#4 24253745#6 24253745#7 24253745#9 24253745#10 24253745#11 24253745#12 24253745#13"/>
    </vehicle>
    <vehicle id="41" depart="70.85">
        <route edges="10642439#0 -10642439#0 -10642430#1 -10642430#0 10642303#4 10642303#5 10571910#3 10571910#4 84945044#1 84945044#2 84945044#3 82567733#1 82567733#2 82567735 43410340 82567740#0 82567740#1 82567730 82567738#0 82567738#1 82567737 70810663 45756877#0 45756877#1 43410339 82567739#0 82567739#1 82567739#2 82567739#3 32029326 32029327#0 32029327#1 32029327#2 32029327#3 32029327#4 32029327#5 32029327#6 137200184 4339396#0 4339396#1 45764849#0 45764849#1 45764850 7971917#0 7971917#1 7971917#2 7971917#3 44737276#1 45764844#0 45764844#1 45764844#2 7971918#0 7971918#1 31055892 7971919#0 7971919#1 4491031#0 4491031#1 4321666#0 24225793#1 24225793#2 24225793#4"/>
    </vehicle>
    <vehicle id="42" depart="72.58">
        <route edges="85518576#3 -14577982#1 67498432#4 67498432#5 14573574#0 14573574#1 131451848#0 131451848#1 131451848#2 131451848#3 131451848#4 131451848#5 131451848#6 131451848#7 131451848#8 131451848#9 131451848#10 131451848#11 -121797007 4290639#0 4290639#1 131451860#0 131451860#1 131451860#2 14370044#0 164369265 164369264 83668211 83668209 8029920#4 8029920#5 -43759960 -43759962 -14771608 131431668#4 131431668#5 131431668#6 131431668#7 44737275#0 44737275#1 44737275#2 45764847#0 45764847#1 45764847#2 7971918#0 7971918#1 44335068#0 4946755#0 4946755#1 4946755#2 4946755#3 4946755#4 104340973#0 104340973#1 104340973#2 133979729 30625550#1 7642912#0"/>
    </vehicle>
    <vehicle id="43" depart="74.30">
        <route edges="43405584#3 43405583#0 43405583#1 43405583#2 131451848#9 131451848#10 131451848#11 -121797007 4290639#0 4290639#1 131451860#0 131451860#1 131451860#2 14370044#0 164369265 164369264 83668211 83668209 8029920#4 8029920#5 8029920#6 8029920#7 8029920#8 44737274#6"/>
    </vehicle>
    <vehicle id="44" depart="76.03">
        <route edges="11070935#1 11070935#2 -11070369 11069854#0 11069854#1 11069854#2 11069854#3 11069854#4 11069854#5 11069854#6 11069854#7 9939408#0 9939408#1 9939408#2 9939408#3 9934011#0 9934011#1 9934011#2 43410344 43760103#0 43760102#0 43760102#1 43760102#2 43760102#3 45756882#0 45756882#1 45756882#2 31784354#0 31784354#2 31784354#4 44536989#0 43798342#0 43798342#1 43798342#2 43798344#0 43798344#1 43798344#2 43798344#4 43798344#5 43798344#6 43798344#7 43798344#8 43798344#10 43798344#11 7732134#3 163805457#0 45764843#0 45764843#1 45764843#2 34378919#1 164298257#2 181982237#2 181982237#3 24253753#0 24253753#2 53321070#0 53321070#1 53321067#0 53321067#2 53321067#4 53321067#5 14463274#2 14463274#3 14463274#4 6601764 43405582#1 43405582#2 4526344#2 4526344#4 14567301#11 109462899 4526341#2"/>
    </vehicle>
    <vehicle id="45" depart="77.76">
        <route edges="15219001 30385988 45314230#0 45314230#1 14483633 71079772#0 71079772#1 71079776 32025213 9933911 8029903#0 8029903#2 8029903#3 8029903#4 8029903#5 4339401#0 4339401#1 4339401#2 4339401#3 4339401#4 4339401#5 44737276#1 45764844#0"/>
    </vehicle>
    <vehicle id="46" depart="79.49">
        <route edges="11069854#6 11069854#7 43410339 82567739#0 82567739#1 82567739#2 82567739#3 32029326 32029327#0 32029327#1 32029327#2 32029327#3 32029327#4 32029327#5 32029327#6 137200184 4339396#0 4339396#1 45764849#0 45764849#1 45764850 7971917#0 7971917#1 7971917#2 7971917#3 44737276#1 45764844#0 45764844#1 45764844#2 7971918#0 7971918#1 31055892 7971919#0 7971919#1 4491031#0 4491031#1 4321666#0 24225793#1 43407392#3 182096890"/>
    </vehicle>
    <vehicle id="47" depart="81.22">
        <route edges="-43407384#1 -43407384#0 -165469577 4489423#0 4489423#1 131543165#3 44335065#0 44335065#1 44335065#2 44335065#3 44335066#0 4314420#5 4314420#6 4321666#2 4314421#4 4314421#5"/>
    </vehicle>
    <vehicle id="48" depart="82.94">
        <route edges="43407392#4 43407392#5 43407392#6 4489517#0 43407391 4949543#0 -4489368 4946758 107078365#0 107078365#2 107078365#4 107078365#5 107078365#6 107078365#7 107078365#8 104340957 104340973#2 133979729 30625550#1 30625550#2 30625550#4 45764850 43410337#0 43410337#1 43410338 71055297#0 71055297#1 71019433 71019462 137200185 -32029327#6 -32029327#5 -32029327#4 -32029327#3 -32029327#2 -32029327#1 -32029327#0 -32029326 -82567739#3 -82567739#2 -82567739#1 -82567739#0 -43410339 9939408#0 9939408#1 9939408#2 9939408#3 9934011#0 9934011#1 9934011#2 43410344 43760103#0 43760102#0 43760102#1 43760102#2 43760102#3 45756882#0 45756882#1 45756882#2 31784357#0 31784357#1 31784357#2 31784357#3 31784357#4 8014111#0 8014111#2 8014111#3 8014111#4 31784478 31784479#0 31784479#1"/>
    </vehicle>
    <vehicle id="49" depart="84.67">
        <route edges="4290771#1 4290771#2 31783746#0 32195455#0 32195455#1 32195456#0 31784353#0 31784353#1 31784354#0 31784354#2 31784354#4 44536989#0 43798342#0 43798342#1 43798342#2 31739018 163805454#0 163805454#1 163805454#3 163805454#4 163805454#5 163805454#6 7732157#7 24585667#0 24585667#1 24585667#2 24585667#3 24585667#4 24585667#5 24585667#6 24585667#7 24585667#8 24585667#9 -83668215 -43759960 -43759962 -14771608 -195664262 -195664261#1 -195664261#0 -131443341 -44336476 -7971523 14459910 44336477 131431680 27926842 -8031768 14459386 161638119#1 161638119#2 14459472 24619376#4 53323771#0 53323771#1 4321666#8 4321666#9 4321666#10 4950794#0 131553923#2 131553923#3 131553923#4"/>
    </vehicle>
    <vehicle id="50" depart="86.40">
        <route edges="4321663#0 4321663#2 8098340#0 8098340#1 8098340#2 -8098344 8098342#0 184882187 131431676 184882186 14459939 7971523 44336476 131443341 195664261#0 195664261#1 195664262 14771608 14481788#0 14481788#1 14481788#2 14481788#3 14481788#4 44737274#4 44737274#5 44737274#6 44737274#7 181982237#0 181982237#1 181982237#2 181982237#3 44335072#0 44335072#1 11342060#0 11342060#1 11341864#0 11341864#1 11341864#2 11341864#3 11341864#4 14486405#0 14486405#1 14486405#2 44167895#0 44167895#1 44167895#2 44167895#3 44167895#4 44167895#5 44167895#6 14579126#1 14579126#2 14579126#3 14580010#1 56323515#3 56323515#2 56323515#1 -56323534#0 -56323534#4 -56323534#3 -14579239#1 -14579239#0 44167990#2"/>
    </vehicle>
    <vehicle id="51" depart="88.13">