<?xml version="1.0"?>

<!-- generated on Tue Jul  9 10:28:29 2013 by SUMO duarouter Version 0.15.0
<?xml version="1.0" encoding="UTF-8"?>

<configuration xmlns:xsi="http://www.w3.org/2001/XMLSchema-instance" xsi:noNamespaceSchemaLocation="http://sumo.sf.net/xsd/duarouterConfiguration.xsd">

    <input>
        <net-file value="madrid.net.xml"/>
        <alternative-files value="1-4000-madrid_prueba_028.rou.alt.xml"/>
        <weight-files value="dump_028_900.xml"/>
    </input>

    <output>
        <output-file value="1-4000-madrid_prueba_029.rou.xml"/>
        <vtype-output value=""/>
        <exit-times value="false"/>
    </output>

    <processing>
        <ignore-errors value="true"/>
        <max-alternatives value="5"/>
        <with-taz value="false"/>
        <routing-algorithm value="astar"/>
        <gawron.beta value="0.9"/>
        <gawron.a value="0.5"/>
        <keep-all-routes value="false"/>
        <logit value="false"/>
        <logit.beta value="0.15"/>
        <logit.gamma value="1"/>
    </processing>

    <time>
        <begin value="0"/>
    </time>

    <report>
        <verbose value="false"/>
        <no-warnings value="true"/>
        <no-step-log value="true"/>
    </report>

    <random_number>
        <random value="false"/>
    </random_number>

</configuration>
-->

<routes xmlns:xsi="http://www.w3.org/2001/XMLSchema-instance" xsi:noNamespaceSchemaLocation="http://sumo.sf.net/xsd/routes_file.xsd">
    <vehicle id="1" depart="0.86">
        <route edges="44508929#1 7593889#0 7593889#1 7593889#2 7593889#3 7593889#4 7593889#5 77603045 43407381#2 43407381#3 72247192#0 72247192#1 131450466 72247172 131450465#1 33760308#0 33760308#1 33760308#2 4319192 76560505#0 76560505#1 76560505#2 76560505#3 76560505#4 76560505#5 76560505#6 136736903 4319191#9 4319191#10 44335063 4489370#0 4489370#1 -136730698 -165468283#1 -165468283#0 -165468884#1 -165468884#0 -43407387 -43407388 -44335064#1 -44335064#0 -104340974 -4489368 4946758 107078365#0 107078365#2 107078365#4 107078365#5 107078365#6 107078365#7 107078365#8 104340957 104340973#2 104340973#3 104340973#4 32028466 32028467#0 32028467#1 45757395#0 45757395#1 45757395#2 45757395#3 45757395#4 45757395#5 11070000#0 11070000#1 -11070362#1 -11070362#0 11069711#2 -11070935#2 -11070935#1 11071805#0 -11071805#0"/>
    </vehicle>
    <vehicle id="2" depart="1.73">
        <route edges="163577083 118934459#0 118934459#1 118934459#2 7971503#0 7971503#2 7971503#3 7971503#4 7971503#5 32025213 9933911 8029903#0 8029903#2 8029903#3 8029903#4 8029903#5 4339401#0 4339401#1 4339401#2 24469940#3 24469940#4 104340960 11101038 4491031#0 4491031#1 4321666#0 24225793#1 24225793#2 24225793#4"/>
    </vehicle>
    <vehicle id="3" depart="2.59">
        <route edges="7971531#1 23689618 23713175#13 23713175#14 23713175#15 23689697#0 23689697#1 131497921#2 131553941#0 131553941#1 131553941#2 24253753#0 24253753#2 53321070#0 53321070#1 53321067#0 53321067#2 4638449#3 4638449#4 14463217#0 14463217#1 14463217#2 83668214#0 83668214#1 43798350 7712497 24507449 43410316 -43410314#1 -43410314#0 -76809470#1 -44884571#3 -44884571#2 -44884571#1 -44884571#0 -34083900 4307813#0 4307813#1"/>
    </vehicle>
    <vehicle id="4" depart="3.46">
        <route edges="14587557#0 14587557#1 44168189#0 44168189#1 44168189#2 44168189#3 44168189#4 11476841 67496504 67496498 11104585 27125327#0 27125327#1 32025057#0 32025057#1 13028902 11477601#0 11477601#1 11477601#2 11477601#3 11477601#4 43798337#0 43798337#1 43798337#2 43798337#3 43798337#4 43798337#5 43798337#6 43798337#7 43798337#8 43798337#9 7732124#0 7732124#1 7732124#2 7732124#3 7732115#0 7732115#1 44571137#0 44571137#1 43798342#0 43798342#1 43798342#2 43798344#0 43798344#1 43798344#2 43798344#4 43798344#5 43798344#6 43798344#7 7732138#0 7732157#7 24585667#0 24585667#1 24585667#2 24585667#3 24585667#4 24585667#5 7732165#1 7732165#2 7732165#3 7732165#4 7732165#5 24469940#7 44737274#1 8572145"/>
    </vehicle>
    <vehicle id="5" depart="4.32">
        <route edges="-65084623#1 -9939682 9938782#0 9938782#1 9938782#2 9938782#3 -65084622#0 -44334514 -44334515 10571938#0 10571938#1 10571938#2 10571938#3 10571938#4 10571938#5 10571938#6 10571938#7 45757408 -32756517#2 -32756517#0 35156700#0 35156700#1 35156700#2 6074578 6074647#0 6074647#1 6074647#2"/>
    </vehicle>
    <vehicle id="6" depart="5.18">
        <route edges="112660678#1 85328237 7732121#1 7732121#2 7732121#3 7732120#0 7732120#1 7732116#0 7732116#1 118934455 7732125#0 7732125#2 7732125#3 7732125#4 14484711#0 14484711#1 14484711#2 44336479#0 44336479#1 14483931#0 14483931#1 123625795#0 123625795#1 71054750#0 71054750#1 14483906#0 14483906#1 71054746#0 71054746#1 71054746#2 31784876#0 31784876#1 31784876#2 15090772#0 15090772#1 15090772#2 45314241#0 45314241#1 45314241#2 45314241#3 71270051 24447170#0 24447170#1 24560661 4487907#0 4487907#1 4487907#2 4487907#3 192162053 45314134#0 45314134#1 67605423 44536106 131451842#0 131451842#1 6601809#0 6601809#1 107088313#0"/>
    </vehicle>
    <vehicle id="7" depart="6.05">
        <route edges="24585667#8 7971522#2 8029920#8 44737274#6 44737274#7 34378919#0 34378919#1 34378919#2 34378919#3 86974743#0 24253745#2 24253745#3 24253745#4 24253745#6 24253745#7 24253745#9 24253745#10 163805511#0 163805511#1 163805508#0 24253745#13 7732127#0 163805460#2 7732117 7732113#0 11340502#0 11340476#0 11340476#1 11379461#0 11379461#1 116693040#1 116693062#2 116693062#3 116693510"/>
    </vehicle>
    <vehicle id="8" depart="6.91">
        <route edges="43410335#1 44737274#0 44737274#1 44737274#2 44737274#3 44737274#4 44737274#5 44737274#6 44737274#7 181982237#0 181982237#1 181982237#2 181982237#3 44335072#0 44335072#1 11342060#0 11342060#1 43798346#0 43798346#1 11342111 32840925#2 32840925#3 32840925#4 32840925#5 32840925#6 32840925#7 32840925#8 32840925#9 4487907#0 4487907#1 4487907#2 4487907#3 192162053 45314134#0 45314134#1 67605423 44536106 131451851 14577912#0 14577912#1 45756883#0 -45756883#0"/>
    </vehicle>
    <vehicle id="9" depart="7.78">
        <route edges="4491031#0 4491031#1 4321666#0 24225793#1 24225793#2 24225793#4 7642851 43410335#0 43410335#1 44737274#0 44737274#1 44737274#2 44737274#3 44737274#4 44737274#5 44737274#6 44737274#7 34378919#0 34378919#1 34378919#2 34378919#3 86974743#0 24253745#2 24253745#3 24253745#4 24253745#6 24253745#7 24253745#9 24253745#10 163805511#0 163805511#1 163805508#0 24253745#13 7732127#0 163805460#2 7732117 7732113#0 11340502#0 11340502#1 11340425#0 11340425#1 11340425#2 11379519#0"/>
    </vehicle>
    <vehicle id="10" depart="8.64">
        <route edges="-43405600#0 -44168021#1 -44168021#0 14578924#0 14578924#1 14578924#2 14578924#3 44167989#0 44167989#1 -4049543#3 -4049543#2 -4049543#1 -4049543#0 31784875 71079767 71054746#0 71054746#1 71054746#2 31784877#0 31784877#1 31784877#2 31784877#3 14485666#0 14485666#1 14485666#2 44167871#0"/>
    </vehicle>
    <vehicle id="11" depart="9.50">
        <route edges="-14459399 14459424 161638119#3 161793151 8031768 27173716#0 8098349#1 8098349#2 -8098313#1 -8098313#0 8098307 131443345#0 131443345#1 33580888 33581058#0 33581058#1 4950643#0 4950643#1 4950643#2 4950643#3 4950643#4 4101280#0 136841198 7643014#2 4307821#0 4307821#1 4307821#2 32606920 32666310#0 32666310#1 43410318 4291302#0 4291302#1 4291302#2 4291302#3 4291302#4 4291302#5 4291302#6 4291302#7 4291302#8 44508932#0 44508932#1 43759864#0 7972776#0 7972776#1 7972776#3 23573546#0 23573546#2 23573546#3 23573546#4 23573546#5 23573546#6 23573546#7 23573546#8 137206573 137216216#0 137216216#1 137216216#2 137216216#3 137519645#0 137519645#1"/>
    </vehicle>
    <vehicle id="12" depart="10.37">
        <route edges="182693926#2 87425097 182693925#1 -11069711#5 -11069711#4 -11069711#3 -11069711#2 -11069711#1 -11069711#0 -45757395#6 -45757395#5 -45757395#4 -45757395#3 -45757395#2 -45757395#1 -45757395#0 45757396 98561793 45757400#0 45757400#1 32025283 32025284#0 32025284#1 32025284#2 104340955 104340968#0 104340968#1 104340968#2 104340968#3 104340968#4 104340968#5 104340968#6 7971920#0 7971920#1 45764844#5 43410334#0 43410334#1 43410334#3 43410334#4 43410334#5 44737273 131431680 4321668 8098348 8098344 8098349#0 8098349#1 8098349#2 -8098313#1 -8098313#0 8098307 131443345#0 131443345#1 26630160#0"/>
    </vehicle>
    <vehicle id="13" depart="11.23">
        <route edges="-11379654#1 11379654#1 11379497#2 -11340425#1 -11340425#0 11340452#0 11340452#1 11379461#0 11379461#1 116695646 116695650#1 31784354#4 44536989#0 43798342#0 43798342#1 43798342#2 43798344#0 43798344#1 43798344#2 43798344#4 43798344#5 43798344#6 43798344#7 43798344#8 163805456#0 163805456#1 163805457#0 45764843#0 45764843#1 45764843#2 45764843#4 45764843#5 7971515 7971521#0 7971522#1 24585667#9 -83668215 -43759960 -43759962 -14771608 -195664262 -195664261#1 -195664261#0 -131443341 -44336476 -7971523 14459910 44336477 131431680 27926842 -8031768 14459386 161638119#1 161638119#2 14459472 24619376#4 14459600#0"/>
    </vehicle>
    <vehicle id="14" depart="12.10">
        <route edges="-7971954 7971949#3 7971947#3 7971947#4 7971947#5 7971947#6 7971959#0 7971959#1 7971959#2 7971959#3 11070084#2 -82567739#2 -82567739#1 -82567739#0 -43410339 9939408#0 9939408#1 9939408#2 9939408#3 9934011#0 9934011#1 9934011#2 43410344 43760103#0 43760102#0 43760102#1 43760102#2 43760102#3 45756882#0 45756882#1 45756882#2 31784357#0 31784357#1 31784357#2 31784357#3 31784357#4 8014111#0 8014111#2 8014111#3 8014111#4 44335671#1 44335671#2 131504893#0 131504893#1 131504893#2 31784479#0 31784479#1 131504884#0 131504884#1 -31783668#3 -31783668#2 -31783668#1 -31783668#0 -31783667#1 -31783667#0 137206567 44167990#0 44167990#1 44167990#2 44167990#3 -43405604#2 137206565#5 137206565#6"/>
    </vehicle>
    <vehicle id="15" depart="12.96">
        <route edges="4307818 4307817#1 4307817#2 4307817#3 43410314#1 43410318 4334159 4352977 -83668214#1 -83668214#0 -83668210 -164369260 164369261 44884574#2 86974742#0 86974742#1 121797007 123625796#0 123625796#2 123625796#3 123625796#4 123625796#5 123625796#6 123625796#7 123625796#8 137206572#3 137206572#4 137206572#5 137206572#6 137206572#7 137206572#8 137206572#9 137206572#10 137206572#11 137206572#12 137206572#13 137206572#14 137206572#15 137206572#16 137206572#17 137206572#18 137216217#1 137216217#2 137216217#3 137216217#4 137216217#5 23089093#0 23712993#0 23712993#1 23712993#2 -71270050#4"/>
    </vehicle>
    <vehicle id="16" depart="13.82">
        <route edges="43798333#1 43798333#2 137355360#4 137355360#5 137355360#6 -13024910#1 13024990#0 13024990#1 -11105757#3 -11105757#2 -11105757#1 -11105757#0 11105762 58692956#3 58692956#4 58692956#5 31784481#0 31784481#1 31784481#2 44335669#0 44335669#1 44335669#2 44335669#3 44335669#4 44335669#5 44536988#0 44536988#1 44536988#2 44536988#3 9934004#0 11074834#0 9933940#0 9934004#4 43760126#6 32025212#0 32025212#2 32025212#3 32025212#4 32025212#5 9939505#0 9939505#1 9939505#2 11072487#8 32025214#3 32025214#5 71079791 14483223 32025281 32025283 32028463 32028465 14481464"/>
    </vehicle>
    <vehicle id="17" depart="14.69">
        <route edges="32025055#1 58692956#1 58692956#2 58692956#3 58692956#4 58692956#5 44335671#0 44335671#1 44335671#2 131504893#0 11477389#0 11477389#1 11477389#2 56323519#0 -56323526 -11477415#3 -11477415#2 -11477415#1 -11477415#0 11477565#2 11477565#3 43798337#8 43798337#9 43798341#0 43798341#1 14484711#0 14484711#1 14484711#2 44336479#0 44336479#1 14483931#0 14483931#1 123625795#0 123625795#1 71054750#0 71054750#1 71054744 14484308 131493290 192162053 45314134#0 45314134#1 67605423 44536106 131451842#0 131451842#1 15218946 4387260 43407369#0 43407369#1 44572744#0"/>
    </vehicle>
    <vehicle id="18" depart="15.55">
        <route edges="7642884 7732108 -4487156#8 -4487156#7 -4487156#6 -4487156#5 -4487156#4 -4487156#3 -4487156#2 -4487156#1 -4487156#0 4950692#0 4950692#1 4950692#2 4950692#3 131443346#0 131443346#1 33580891 33580892 8098304 8098313#0 8098313#1 8098340#0 8098340#1 8098340#2 -8098344 8098342#0 184882187 131431676 184882186 14459939 7971523 44336476 131443341 195664261#0 195664261#1 195664262 14771608 43759962 43759960 8029920#6 8029920#7 8029920#8 44737274#6 44737274#7 181982237#0 181982237#1 181982237#2 181982237#3 44335072#0 44335072#1 11342060#0 11342060#1 11341864#0 11341864#1 11341864#2 11341864#3 11341864#4 14486405#0 14486405#1 14486405#2 44167895#0 44167895#1 44167895#2 44167895#3 44167895#4 44167895#5 44167895#6 44167895#7 44167895#8 11477831#0 11477831#1 11477772#0 -32025120#1 -32025120#0 43798337#7 43798337#8"/>
    </vehicle>
    <vehicle id="19" depart="16.42">
        <route edges="4526341#1 4526341#2 4526341#3 4526341#4 4526341#5 43405583#0 43405583#1 123625796#4 123625796#5 174814863#1 174814863#3 174814863#4 14567697#6 14567697#7 14567697#8 137206572#10 137206572#11 137206572#12 137206572#13 137206572#14 137206572#15 137206572#16 137206572#17 137206572#18 137216217#1 137216217#2 137216217#3 137216217#4 137216217#5 23089093#0 23712993#0 23712993#1 15090735#1 15090735#2 15090735#3 15090792#0 15090792#1 15090792#2 15090792#3 15090792#4 15093195#1"/>
    </vehicle>
    <vehicle id="20" depart="17.28">
        <route edges="14567301#8 133150561#3 4526341#5 -43405584#3 -43405584#2 -43405584#1 -106343228#1 -106343228#0 4638449#0 106343219#0 106343219#2 106343219#3 53321072#0 53321072#1 53321077#0 131553936#0 11341598#0 11341598#1 43798345 164298255#0 44335071#2 7732132#0 7732132#1 163805459#0 163805459#1 163805459#2 163805455 163805460#0 163805460#2 7732117 7732113#0 11340502#0 11340502#1 11340425#0 11340425#1 -11379497#2 -11379497#1 -11379519#3 -11379519#2"/>
    </vehicle>
    <vehicle id="21" depart="18.14">
        <route edges="7971961#4 11069946#5 11069946#6 11069946#7 87425127 -11069711#0 -45757395#6 -45757395#5 -45757395#4 -45757395#3 -45757395#2 -45757395#1 -45757395#0 45757396 98561793 45757400#0 45757400#1 32025283 32025284#0 32025284#1 32025284#2 104340955 104340968#0 104340968#1 104340968#2 104340968#3 104340968#4 104340968#5 104340968#6 7971920#0 7971920#1 45764844#5 7642851 43410335#0 43410335#1 44737274#0 44737274#1 44737274#2 44737274#3 44737274#4 44737274#5 44737274#6 44737274#7 181982237#0 181982237#1 181982237#2 181982237#3 24253753#0 24253753#2 53321070#0 53321070#1 53321074#0 53321074#1 53321073#0 53321073#1 164369279#0 164369273#0 164369273#1"/>
    </vehicle>
    <vehicle id="22" depart="19.01">
        <route edges="102494324#2 14567697#0 109462875#10 14567503#3 14567503#4 14567503#5 174814863#6 32840925#4 32840925#5 32840925#6 32840925#7 32840925#8 32840925#9 44335073#0 44335073#1 23713173#0 23713173#1 30385992#0 30385992#1 71270057 71270048 71270050#0 -71270046#1 -71270046#0 15093196 23712923#1 23712923#2 23712923#3 15101043 78576166 131497923 131497891#0"/>
    </vehicle>
    <vehicle id="23" depart="19.87">
        <route edges="109462887 -109462887 4526341#2 4526341#3 4526341#4 4526341#5 -43405584#3 -43405584#2 -43405584#1 -106343228#1 -106343228#0 4638449#0 106343219#0 106343219#2 106343219#3 53321072#0 53321072#1 53321077#0 131553936#0 11341598#0 11341598#1 43798345 44335071#0 44335071#2 -7732159 30993406#0 30993406#1 7732157#0 7732157#2 7732157#3 24253745#7 24253745#9 24253745#10 24253745#11 24253745#12 24253745#13 24253745#14 118934457 118934456#0 44571137#1 7732118#0 7732118#1 7971503#0 7971503#2 7971503#3 7971503#4 7971503#5 32025213 -32025212#10 -32025212#9 -32025212#8 -32025212#7 -32025212#6 9939505#0 9939505#1 11072569#1 11072569#2 11072569#3 11072569#4 11072569#5 11072569#6"/>
    </vehicle>
    <vehicle id="24" depart="20.74">
        <route edges="65279237#1 65279237#2 4950791 33760308#0 33760308#1 33760308#2 33760308#3 33760308#4 33760308#5 33760308#6 33760310#0 33760310#1 46098108 -7642766#1 -7642766#0 43405567#0 43405567#1 43405567#2 131542527 45757397#0 45757397#1 44335063 4489370#0 4489370#1 -136730698 -165468283#1 -165468283#0 -165468884#1 -165468884#0 -43407387 -43407388 -44335064#1 -44335064#0 -104340974 -4489368 4946758 107078365#0 107078365#2 107078365#4 107078365#5 107078365#6 107078365#7 107078365#8 104340957 104340973#2 133979729 30625550#1 30625550#2 30625550#4 45764850 43410337#0 43410337#1 43410338 71055297#0 71055297#1 71019433 71019462 137200185 -32029327#6 -32029327#5 -32029327#4 -32029327#3 -32029327#2 -32029327#1 -32029327#0 -32029326 -82567739#3 -82567739#2 -82567739#1 -82567739#0 -43410339 -45756877#1 -45756877#0 -70810663 -82567737 -82567738#1 32029515 32029514#0 32029514#1 32029514#2 32029514#3 32029514#4 32029514#5 32029514#6 32029514#7 10643052#0 10643109#0 10643109#1 10643018#0 10643375#2 10643375#3 10643375#4 10643375#5 40520102 84945044#0 84945044#1"/>
    </vehicle>
    <vehicle id="25" depart="21.60">
        <route edges="-14484862#0 163805461#1 163805461#3 163805461#4 7732117 7732115#0 7732115#1 44571137#0 118934456#1 31784355#0 31784355#1 44335669#4 44335669#5 44536988#0 44536988#1 44536988#2 44536988#3 9934004#0 11074834#0 163577079#0 163577079#1 163577079#2 163577079#3 9934157#1 9934157#2 9940952#5 43760118#0 -9940903#1 -56323501#0 65084623#2 65084628#0 65084628#1 65084628#2 82567733#2 82567735"/>
    </vehicle>
    <vehicle id="26" depart="22.46">
        <route edges="29156986#2 11476737#2 11476737#3 137355360#1 137355360#2 137355360#3 137355360#4 137355370#2 137355370#3 137355372#0 137355372#1 137355372#2 13029591 67491756#0 67491756#1 67491756#2 -43798334#1 -43798334#0 67496458 -31783668#3 -31783668#2 -31783668#1 -31783668#0 11477978 27927582#0 27927582#1 137355361#0 137355361#1 11105785#1 11105785#2 -11477742#5 11477667#0 -11477632#8 -11477632#7 -11477632#6"/>
    </vehicle>
    <vehicle id="27" depart="23.33">
        <route edges="137206565#6 137206565#7 137206565#8 137206569 31783667#0 31783667#1 11477978 27927582#0 27927582#1 137355361#0 137355361#1 11105785#1 11105785#2 -11477742#5 -11477742#4 -11477742#3 -56323527 -11477736 43798337#3 43798337#4 43798337#5 43798337#6 43798337#7 43798337#8 43798337#9 7732124#0 7732124#1 7732124#2 7732124#3 7732115#0 7732115#1 44571137#0 44571137#1 7732118#0 7732118#1 7971503#0 7971503#2 7971503#3 7971503#4 7971503#5 32025213 32025214#0 32025214#1 32025214#2 32025214#3 32025214#5 71079791 14483223 32028467#0 32028467#1 45757396 98561764#0 98561764#1 98561764#2 98561764#3 98561764#4 98561779#0 98561790 98561765#0 98561765#1 98561765#2 98561765#3 77065977#1"/>
    </vehicle>
    <vehicle id="28" depart="24.19">
        <route edges="43798334#1 43800039#0 43800039#1 43800046#0 43800046#1 -13025750#0 13029591 43800044 -13029189#7 -13029189#6 -13029189#5 -13029189#4 -13029189#3 -13029189#2 -13029189#1 -13029189#0 13029111 43798335#0 43798335#1 149789875 -32025056 32025055#0 32025055#1 58692956#1 58692956#2 58692956#3 58692956#4 58692956#5 31784481#0 31784481#1 31784481#2 44335669#0 44335669#1 44335669#2 44335669#3 44335669#4 44335669#5 44536988#0 44536988#1 44536988#2 44536988#3 9934004#0 11074834#0 9933940#0 9934004#4 9934004#5 9934004#6 9934004#7 9934004#8 9934004#9 9934004#10 -45756878 9939389#0 9939389#1 9939389#3 11069715#0 11070109#2 11069854#7"/>
    </vehicle>
    <vehicle id="29" depart="25.06">
        <route edges="43405583#1 43405583#2 43405583#4 43405583#5 43405583#6 43405583#7 43405583#8 43405583#9 44167895#0 44167895#1 44167895#2 44167895#3 44167895#4 44167895#5 44167895#6 44167895#7 44167895#8 11477831#0 11477831#1 11477764#0 11477764#1 11477764#2 11477764#3 11477764#4 -11477752#1 11477742#1 11477742#2 11477742#3 11477742#4 11477667#0 11477632#9 11105785#4 43798338#0 43798338#1 43798338#2 43798338#3 131504893#2 58692956#0 58692956#1 58692956#2 58692956#3 11104407 -11103994#3 -11103994#2 -11103994#1"/>
    </vehicle>
    <vehicle id="30" depart="25.92">
        <route edges="9934004#9 9941112#10 9934011#1 9934011#2 43410344 43760103#0 43760102#0 43760102#1 43760102#2 43760102#3 45756882#0 45756882#1 45756882#2 31784357#0 31784357#1 31784357#2 31784357#3 31784357#4 8014111#0 8014111#2 8014111#3 8014111#4 44335671#1 44335671#2 131504893#0 131504893#1 131504893#2 31784479#0 31784479#1 131504884#0 131504884#1 27125326 45756886#0 45756886#1 11476346#0 11476346#1 11476346#2"/>
    </vehicle>
    <vehicle id="31" depart="26.78">
        <route edges="4946755#2 7642944 104340968#4 104340968#5 104340968#6 7971920#0 7971920#1 45764844#5 7642851 43410335#0 43410335#1 44737274#0 44737274#1 44737274#2 44737274#3 44737274#4 44737274#5 44737274#6 44737274#7 181982237#0 181982237#1 181982237#2 181982237#3 44335072#0 44335072#1 11342060#0 11342060#1 43798346#0 43798346#1 11342111 43405583#8 43405583#9 44167895#0 44167895#1 44167895#2 24409150"/>
    </vehicle>
    <vehicle id="32" depart="27.65">
        <route edges="43410334#0 43410334#1 43410334#3 8029934#0 8029934#1 -11101396#0 43410336#0 43410336#1 -11101490 43410335#0 43410335#1 44737274#0 44737274#1 44737274#2 44737274#3 44737274#4 44737274#5 44737274#6 44737274#7 34378919#0 34378919#1 34378919#2 34378919#3 86974743#0 24253745#2 164298252#0 7732132#1 163805459#0 163805459#1 163805459#2 163805455 163805461#0 14484862#0"/>
    </vehicle>
    <vehicle id="33" depart="28.51">
        <route edges="9939284#1 9938944#7 9939315#2 74017967#8 74017967#9 74017967#11 45756878 45756879 9934011#0 9934011#1 9934011#2 43410344 43760103#0 43760102#0 43760102#1 43760102#2 43760102#3 45756882#0 45756882#1 45756882#2 31784357#0 31784357#1 31784357#2 31784357#3 31784357#4 8014111#0 8014111#2 8014111#3 8014111#4 44335671#1 44335671#2 131504893#0 131504893#1 131504893#2 31784479#0 31784479#1 131504884#0 131504884#1 27125326 45756886#0 11476781#0 11476781#1 11476781#2 14580239#0 14580239#1 14580239#2 14580239#3 14580239#4 14580239#5 14580239#6 15100637#0 15100637#1 -79290404#1 -79290404#0 15100773#0 15100773#1 -15101184"/>
    </vehicle>
    <vehicle id="34" depart="29.38">
        <route edges="10044037#6 11072487#5 11072515 11072569#3 11072569#4 11072569#5 11072569#6 11072569#7 43760103#0 43760102#0 43760102#1 43760102#2 43760102#3 45756882#0 45756882#1 45756882#2 31784357#0 31784355#0 31784355#1 31784356#0 163577087#0 44571136#8 43760196#0 43760196#1 11381066 11381084#0 -11381084#0"/>
    </vehicle>
    <vehicle id="35" depart="30.24">
        <route edges="8098307 131443345#0 131443345#1 33580888 33580890 43410324 131443346#0 131443346#1 33580891 33580892 8098304 8098313#0 8098313#1 8098340#0 8098340#1 8098340#2 -8098344 8098342#0 184882187 131431676 184882186 14459939 7971523 44336476 131443341 195664261#0 195664261#1 195664262 14771608 14481788#0 14481788#1 14481788#2 14481788#3 14481788#4 44737274#4 44737274#5 44737274#6 44737274#7 34378919#0 34378919#1 34378919#2 34378919#3 86974743#0 24253745#2 164298252#0 7732132#1 7732148#0 30993406#0 30993406#1 7732157#0 163805459#2 163805455 163805460#0 163805460#2 7732117 7732113#0 11340502#0 11340502#1 11340425#0 11340425#1 11340425#2 11340425#3 11340533 131504893#0 131504893#1 131504893#2 31784479#0 31784479#1 -13028902 32025056 188083821 13028985#0 13028985#1 43798336 43798335#0 13029019#0"/>
    </vehicle>
    <vehicle id="36" depart="31.10">
        <route edges="10571938#0 -10571938#0 44334515 9934315#0 9934315#1 9934315#2 109238273 31952954#0 31952954#1 109238270#0 109238270#1 109238270#2 74017969 46827290#0 46827290#1 118988830#0 118988830#1 118988830#2 46827291#0 46827291#1 46827291#2 11102141#0 11102141#1 11102141#2 11102141#3 11102141#4 11102141#5 11102141#6 11102141#7 -11105757#7 -11105757#6 -11105757#5 -11105757#4 -11105757#3 13025073#0 13025206#0 13025206#1 13025206#2 13025206#3 13025493#1 13025379#2 13025379#3 13029230 -13029189#4 -13029189#3 -13029189#2"/>
    </vehicle>
    <vehicle id="37" depart="31.97">
        <route edges="-10642552#2 10642552#2 -84945006 40520103#2 40520105#0 40520106#0 40520106#1 40520102 84945044#0 84945044#1 84945044#2 84945044#3 -82567733#0 -82567736 -82567732 9938871#0 9938871#1 9938871#2 74017967#3 74017967#4 74017967#5 74017967#6 74017967#8 74017967#9 74017967#11 45756878 45756879 9934011#0 9934011#1 9934011#2 43410344 43760103#0 43760102#0 43760102#1 43760102#2 43760102#3 45756882#0 45756882#1 45756882#2 31784357#0 31784357#1 31784357#2 31784357#3 31784357#4 8014111#0 8014111#2 8014111#3 -11380156"/>
    </vehicle>
    <vehicle id="38" depart="32.83">
        <route edges="98561767#2 98561767#3 119023670#0 119023670#1 -98561773#1 -98561773#0 -98561779#1 -98561779#0 98561777#0 98561777#1 98561777#2 98561777#3 45757400#0 45757400#1 32025283 32028463 32028465 14481464 71054752#0 71054752#1 71054752#2 71054752#3 32025211 71054747 71054750#0 71054750#1 71054744 14484308 131493290 192162053 45314134#0 45314134#1 67605423 44536106 131451851 14577912#0 14577912#1 45756883#0"/>
    </vehicle>
    <vehicle id="39" depart="33.70">
        <route edges="43405583#0 43405583#1 43405583#2 43405583#4 43405583#5 43405583#6 43405583#7 43405583#8 43405583#9 44167895#0 44167895#1 44167895#2 44167895#3 44167895#4 71079772#1 14483666#0 14483666#1 14483666#2 123625794#0 123625794#1 123625793 71079781 44336480#0 44336480#1 43798341#0 43798341#1 14484711#0 14484711#1 24829805 123625798#0 123625798#1 14484913#0 14484972#2"/>
    </vehicle>
    <vehicle id="40" depart="34.56">
        <route edges="4101289 4101287#2 4101285#3 4101285#4 4950692#0 4950692#1 4950692#2 4950692#3 131443346#0 131443346#1 33580891 33580892 8098304 8098313#0 8098313#1 8098340#0 8098340#1 8098340#2 -8098344 8098342#0 184882187 131431676 184882186 14459939 7971523 44336476 131443341 195664261#0 195664261#1 195664262 14771608 14481788#0 14481788#1 14481788#2 14481788#3 14481788#4 44737274#4 44737274#5 44737274#6 44737274#7 181982237#0 181982237#1 181982237#2 181982237#3 44335072#0 44335072#1 11342060#0 11342060#1 43798346#0 43798346#1 11342111 43405583#8 43405583#9 44167895#0 44167914"/>
    </vehicle>
    <vehicle id="41" depart="35.42">
        <route edges="9938944#9 9938944#10 9938944#11 9938944#12 9939408#1 9939408#2 9939408#3 9934011#0 9934011#1 9934011#2 43410344 43760103#0 43760102#0 43760102#1 43760102#2 43760102#3 45756882#0 45756882#1 45756882#2 31784357#0 31784357#1 31784357#2 31784357#3 31784357#4 8014111#0 8014111#2 8014111#3 8014111#4 44335671#1 44335671#2 131504893#0 131504893#1 131504893#2 31784479#0 31784479#1 131504884#0 131504884#1 -31783668#3 -31783668#2 -31783668#1 -31783668#0 -31783667#1 -31783667#0 27927581#0 11477860#0 11477860#1 14580416#0 14580416#1 14580416#2 14580420 14580314#1"/>
    </vehicle>
    <vehicle id="42" depart="36.29">
        <route edges="4489517#0 4489518#0 4489516 4491031#3 4319324#0 4319324#1 4319325#0 4319325#1 4319325#2 24225793#0 24225793#1 24225793#2 24225793#4 43410334#0 43410334#1 43410334#3 43410334#4 43410334#5 44737273 131431680 4321668 8098348 8098342#0 184882187 14459845 -107090824#1 -107090824#0 -49600302#3 -49600302#2 -49600302#1 -49600302#0 14460235 131450468#0 131450468#1 4950641#0 4950641#1 4307821#0 4307821#1 4307814#0 4307814#1 -4307812#0 44884571#0 44884571#1 44884571#2 44884571#3 -174851637 32897811 174851639#1 174851639#2"/>
    </vehicle>
    <vehicle id="43" depart="37.15">
        <route edges="14580037 56323514#0 56323514#1 -56323534#1 56323515#0 56323514#3 56323514#4 -14579126#8 14579188 -11477752#1 11477742#1 11477742#2 11477742#3 11477742#4 11477667#0 11477632#9 11105785#4 43798338#0 43798338#1 43798338#2 43798338#3 131504893#2 58692956#0 58692956#1 58692956#2 58692956#3 11104407 -11103994#3 -11103994#2 -11103994#1 -11103994#0 -11103905#1 -11103905#0 11103146#3"/>
    </vehicle>
    <vehicle id="44" depart="38.02">
        <route edges="44737274#6 24585667#8 24585667#9 -83668215 -43759960 -43759962 -14771608 -195664262 -195664261#1 -195664261#0 -131443341 -44336476 44336475#0 44336475#1 14460689#1 -49600302#3 -49600302#2 49600302#2"/>
    </vehicle>
    <vehicle id="45" depart="38.88">
        <route edges="14578962#0 14578962#1 44167989#0 44167989#1 -4049543#3 -4049543#2 -4049543#1 -4049543#0 31784875 14483891#0 14483891#1 14483891#2 14483891#3 71079772#0 71079772#1 14483666#0 14483666#1 14483666#2 123625794#0 123625794#1 123625793 71079781 44336480#0 44336480#1 7732124#0 7732124#1 7732124#2 7732124#3 7732115#0 7732115#1 44571137#0 44571137#1 7732118#0 7732118#1 7971503#0 7971503#2 7971503#3 7971503#4 7971503#5 32025213 32025214#0 32025214#1"/>
    </vehicle>
    <vehicle id="46" depart="39.74">
        <route edges="56323523 -11477565#0 14480888#4 14480888#5 14480888#6 85333169 -11340425#0 11340452#0 11340452#1 11379461#0 11379461#1 116695646 116695650#1 31784354#4 44536989#0 43798342#0 43798342#1 43798342#2 43798344#0 43798344#1 43798344#2 43798344#4 43798344#5 43798344#6 43798344#7 43798344#8 43798344#10 43798344#11 7732134#3 163805457#0 45764843#0 45764843#1 45764843#2 45764843#4 45764843#5 7971515 7971521#0 7971522#1 24585667#9 -83668215 -43759960 -43759962 -14771608 -195664262 -195664261#1 -195664261#0 -131443341 -44336476 -7971523 14459910 44336477 131431680 27926842 27464019 4314423#0 4314423#1 136736904#4 136736904#5 43407392#0"/>
    </vehicle>
    <vehicle id="47" depart="40.61">
        <route edges="11071026#1 11071026#2 45757395#9 45757395#10 119023651 119023670#0 119023670#1 -98561773#1 -98561773#0 -98561779#1 -98561779#0 98561777#0 98561777#1 98561777#2 98561777#3 45757400#0 45757400#1 32025283 32025284#0 32025284#1 32025284#2 104340955 104340968#0 104340968#1 104340968#2 104340968#3 104340968#4 104340968#5 104340968#6 7971920#0 7971920#1 45764844#5 7642851 43410335#0 43410335#1 44737274#0 44737274#1 44737274#2 44737274#3 44737274#4 44737274#5 44737274#6 44737274#7 181982237#0 181982237#1 181982237#2 181982237#3 24253753#0 24253753#2 53321070#0 53321070#1 53321074#0 53321074#1 53321073#0 53321073#1 -7971535 -7971516 -7971525 44336478#0 14567951#0 14567951#2 14567951#3 14567951#4 23573143#5 23573143#6 123625796#5 123625796#6 123625796#7 137519646#5 137519646#6"/>
    </vehicle>
    <vehicle id="48" depart="41.47">