<?xml version="1.0"?>

<!-- generated on Thu Jul 11 16:31:32 2013 by SUMO duarouter Version 0.15.0
<?xml version="1.0" encoding="UTF-8"?>

<configuration xmlns:xsi="http://www.w3.org/2001/XMLSchema-instance" xsi:noNamespaceSchemaLocation="http://sumo.sf.net/xsd/duarouterConfiguration.xsd">

    <input>
        <net-file value="madrid.net.xml"/>
        <alternative-files value="5-3000-madrid_prueba_028.rou.alt.xml"/>
        <weight-files value="dump_028_900.xml"/>
    </input>

    <output>
        <output-file value="5-3000-madrid_prueba_029.rou.xml"/>
        <vtype-output value=""/>
        <exit-times value="false"/>
    </output>

    <processing>
        <ignore-errors value="true"/>
        <max-alternatives value="5"/>
        <with-taz value="false"/>
        <routing-algorithm value="astar"/>
        <gawron.beta value="0.9"/>
        <gawron.a value="0.5"/>
        <keep-all-routes value="false"/>
        <logit value="false"/>
        <logit.beta value="0.15"/>
        <logit.gamma value="1"/>
    </processing>

    <time>
        <begin value="0"/>
    </time>

    <report>
        <verbose value="false"/>
        <no-warnings value="true"/>
        <no-step-log value="true"/>
    </report>

    <random_number>
        <random value="false"/>
    </random_number>

</configuration>
-->

<routes xmlns:xsi="http://www.w3.org/2001/XMLSchema-instance" xsi:noNamespaceSchemaLocation="http://sumo.sf.net/xsd/routes_file.xsd">
    <vehicle id="0" depart="0.00">
        <route edges="44737273 131431680 4321668 8098348 8098342#0 184882187 131431676 184882186 14459939 7971523 44336476 131443341 195664261#0 195664261#1 195664262 14771608 43759962 43759960 83668215 83668212 43798349#0 43798349#1 43759903#0 43759903#1 53321074#0 53321074#1 53321073#0 53321073#1 -7971535 -7971516 7971524 14567503#0 14567503#1 109462875#11 32840925#0"/>
    </vehicle>
    <vehicle id="1" depart="1.15">
        <route edges="112538796#0 4334167 44737268#2 44737268#3 44737268#4 131451859 44508934 131450470 44508936#0 44508936#1 4291303#0 4291303#2 4291303#3 4291303#4 43800158 7712497 24812300#0 24812300#1 24812300#2 24812300#3 24812300#4 24812300#5 24812300#6 24812302#0 24812302#1 131431668#0 131431668#1 11101797#0 11101717#1 11101717#2 -195664261#1 -195664261#0 -131443341 -44737271 -11101396#1 -11101396#0 43410336#0 43410336#1 -11101490 43410335#0"/>
    </vehicle>
    <vehicle id="2" depart="2.30">
        <route edges="15218913 15218911#2 -44508937#4 -44508937#3 -44508937#1 -44508937#0 -109462892 -109462888 -137519639#2 -137519639#1 -137519639#0 137519645#0 137519645#1 137519645#2 137519645#3 137519644#0 137519644#1 137519644#2 137519644#3 137519644#4 137519642#0 137519642#1 137519643#0 137519643#1 137519643#2 137206572#0 137206572#1 137206572#2 137206572#3 137206572#4 137206572#5 137206572#6 137206572#7 137206572#8 137206572#9 137206572#10 137206572#11 137206572#12 137206572#13 137206572#14 137206572#15 137206572#16 137206572#17 137206572#18 137216217#1 137216217#2 71270047#2 71270047#3 71270047#4 71270047#5 71270047#6 71270047#7 71079765#0 71079765#1 31784875 14483891#0 14483891#1 -14579290#3 -14579290#2 -14579297"/>
    </vehicle>
    <vehicle id="3" depart="3.46">
        <route edges="23573002 -23573002 14586217 -11476781#1 -11476781#0 45756886#1 45756881 11476841 67496504 67496498 11104585 27125327#0 27125327#1 32025057#0 32025057#1 32025055#0 32025055#1 58692956#1 58692956#2 58692956#3 11104407 -11103994#3 -11103994#2 -11103994#1 -11103994#0 -11103905#1 11103934 11381102 -11381084#1 -11381084#0 11381076 43760196#3 43760196#4 43760196#5 43760201#0 43760201#1 44536991#0 44536991#1 9934195 9934175#0 9934175#1 43760127 43760124 43410342#0 43410342#2 43410342#4 43410342#5 43410342#6 43410342#7 10641969 100704678#2 32029514#2 32029514#3 10643095#0 10643095#1"/>
    </vehicle>
    <vehicle id="4" depart="4.61">
        <route edges="109462873#1 4526343#7 4526343#8 4526343#9 137519644#0 137519644#1 137519644#2 137519644#3 137519644#4 137519642#0 137519642#1 43405588#2 31784764#0 137216212 -43405585#2 -43405585#1 -43405585#0 -43405584#3 -43405584#2 -43405584#1 -106343228#1 -106343228#0 4638449#0 4638449#2 4638449#3 4638449#4 14463217#0 14463217#1 14463217#2 14463039#0 14463039#1 14463039#2 24812300#4 24812300#5 24812300#6 24812302#0 24812302#1 131431668#0 131431668#1 131431668#2 131431668#3 131431668#4 131431668#5 131431668#6 131431668#7 44737275#0 44737275#1 44737275#2 45764847#0 45764847#1 45764847#2 7971918#0 7971918#1 44335068#0 4946755#0 4946755#1 4946755#2 4946755#3 4946755#4 104340973#0 104340973#1 104340973#2 133979729 30625550#1 30625550#2 30625550#4 45764850 7971917#0 7971917#1 7971917#2"/>
    </vehicle>
    <vehicle id="5" depart="5.76">
        <route edges="13025073#2 13024910#3 13024910#4 13025248#2 137355372#1 137355372#2 13029591 67491756#0 67491756#1 67491756#2 -43798334#1 -43798334#0 67496458 -31783668#3 -31783668#2 -31783668#1 -31783668#0 -31783667#1 -31783667#0 137206567 44167990#0 44167990#1 44167990#2 44167990#3 44167990#4 44167990#6 44167990#7 44167989#0 44167989#1 45314235#0 45314235#1 45314238#1 45314238#2 45314238#3 45314241#0 45314241#1 45314241#2 45314241#3 71270051 24447170#0 24447170#1 24560661 4487907#0 4487907#1 4487907#2 4487907#3 192162053 45314134#0 45314134#1 6601805#0 6601805#1 6601805#3 -23086639#2 -23086639#1 -23086674"/>
    </vehicle>
    <vehicle id="6" depart="6.91">
        <route edges="176328230#1 -176328238 172550739 172382362 172382356 172382359 -555515 43405567#0 43405567#1 43405567#2 131542527 45757397#0 4491032#0 4491032#1 4491032#2 4491032#3 4491032#4 4491032#5 4491032#6 4491032#7 4491032#8 4491032#9 44335067#0 44335067#1 44335067#2 24225793#0 24225793#1 24225793#2 24225793#4 7642851 43410335#0 43410335#1 44737274#0 44737274#1 44737274#2 44737274#3 44737274#4 44737274#5 44737274#6 44737274#7 181982237#0 181982237#1 181982237#2 181982237#3 44335072#0 44335072#1 11342060#0 11342060#1 11341864#0 11341864#1 11341864#2 11341864#3"/>
    </vehicle>
    <vehicle id="7" depart="8.06">
        <route edges="116694396#1 116694368 -116693072#0 116693077 116693069#1 116693069#2 116693069#3 112660678#0 112660678#1 -45764846#4 -45764846#3 -45764846#2 148197004 148197008#1 8029903#7 8029903#8 45764851#1 45764851#2 104340960 11101038 4491031#0 4491031#1 4321666#0 4321666#1 4321666#2 4321666#3 4321666#4 4321666#5 4321666#6 4321666#7 4321666#8 4321666#9 4321666#10 4950794#0 4950794#1"/>
    </vehicle>
    <vehicle id="9" depart="10.37">
        <route edges="-15102693#0 -43405602#11 -43405602#10 -43405602#9 -43405602#8 -43405602#7 -43405602#6 -43405602#5 -43405602#4 -43405602#3 -43405602#2 -43405602#1 -43405602#0 -43405601#2 -43405601#1 -43405601#0 -44168021#1 -44168021#0 14578924#0 14578924#1 14578924#2 14578924#3 44167989#0 44167989#1 -4049543#3 -4049543#2 -4049543#1 -4049543#0 14486362#0 14486362#1 31784877#0 31784877#1 31784877#2 31784877#3 44167914 32840923 32840924 32840925#0 14567301#0 14567301#1 14567301#2 14567301#3"/>
    </vehicle>
    <vehicle id="10" depart="11.52">
        <route edges="11069732#0 182693926#0 182693926#1 182693926#2 182693926#3 182693926#4 11069715#3 11070118#0 11069854#6 11069854#7 9939408#0 9939408#1 9939408#2 9939408#3 9934011#0 9934011#1 9934011#2 43410344 43760103#0 43760102#0 43760102#1 43760102#2 43760102#3 45756882#0 45756882#1 45756882#2 31784357#0 31784357#1 31784357#2 31784357#3 31784357#4 8014111#0 8014111#2 8014111#3 8014111#4 44335671#1 44335671#2 131504893#0 131504893#1 131504893#2 58692956#0 58692956#1 58692956#2 58692956#3 11104407 -11103994#3 -11103994#2 -11103994#1 -11103994#0 -11103905#1 -11103905#0 -13031905 11380847#3"/>
    </vehicle>
    <vehicle id="11" depart="12.67">
        <route edges="-14580239#2 -14580239#1 -14580239#0 -11476781#2 -11476781#1 14580314#0 14580314#1 -14580354#1 -14580354#0 11477874#0 11477874#1 27927581#3 27927581#4 11477978 27927582#0 27927582#1 27927582#2 27927582#3 11477990 -11477764#9 -11477764#8 -11477764#7 -11477764#6 -11477764#5 -11477764#4 -11477764#3 -11477764#2 -11477764#1 -11477764#0 11477772#0 -32025120#1 -32025120#0 43798337#7 43798337#8 43798337#9 43798341#0 43798341#1 14484711#0 14484711#1 24829805 123625798#0 123625798#1 123625798#2 -7732155#1 -7732155#0 7732136#0 7732136#1 7732157#0 7732157#2 7732157#3 7732157#4 7732157#5 7732157#6 7732157#7 8029712#0 8029712#1 8029712#2 45764851#0 45764851#1 45764851#2 104340960 11101038 4491031#0 4491031#1 4489519#0"/>
    </vehicle>
    <vehicle id="12" depart="13.82">
        <route edges="-30693243#2 11071026#0 11071026#1 48501842#2 45757395#10 119023651 119023670#0 119023670#1 -98561773#1 -98561773#0 -98561779#1 -98561779#0 98561777#0 98561777#1 98561777#2 98561777#3 45757400#0 45757400#1 32025283 32025284#0 32025284#1 32025284#2 104340955 104340968#0 104340968#1 104340968#2 104340968#3 104340968#4 104340968#5 104340968#6 7971920#0 7971920#1 45764844#5 7642851 43410335#0 43410335#1 44737274#0 44737274#1 44737274#2 44737274#3 44737274#4 44737274#5"/>
    </vehicle>
    <vehicle id="13" depart="14.98">
        <route edges="9938782#2 9938944#0 9938871#1 9938871#2 74017967#3 -65084623#2 -65084623#1 -43760118#1 -43760118#0 -43760127 -9934175#1 -9934175#0 9934191 32195452#0 32195452#1 118988838 32195456#0 31784353#0 31784353#1 31784354#0 31784354#2 31784354#4 44536989#0 43798342#0 7732116#1 118934455 7732125#0 7732125#2 7732125#3 7732125#4 14484711#0 14484711#1 14484711#2 4680727#0 4680727#1 4680727#2 4680727#3 14485680#1 14485680#0"/>
    </vehicle>
    <vehicle id="14" depart="16.13">
        <route edges="-14579026#1 14579026#1 14579281#0 14579281#1 -14579290#0 14578962#0 14578962#1 44167989#0 44167989#1 45314235#0 45314235#1 45314238#1 45314238#2 45314238#3 137206570#0 137206570#1 137206570#2 137206570#3 137206570#4 137206570#5 137206570#6 137206570#7 137206570#8 137206570#9 137206570#10 137206570#11 137206570#12 137206570#13 137519646#0 137519646#1 137519646#2 137519646#3 137519646#4 137519646#5 137519646#6 137519646#7 31784766#0 31784766#1 31784764#0 137216212 -43405585#2 43405585#2"/>
    </vehicle>
    <vehicle id="15" depart="17.28">
        <route edges="14574477 30385992#1 71270057 71270059#0 71270059#1 71270059#2 71270059#3 71270059#4 15090741#0 15090741#1 15090741#2 15090741#3 71270047#0 71270047#1 71270047#2 71270047#3 45314238#3 137206570#0 -14566906#2 -14566906#1 -14566906#0 31784877#3 14485666#0 14485666#1 14485666#2 44167871#0 44167871#1 102494324#0 32840922#0 32840922#1 32840922#2 164369273#1"/>
    </vehicle>
    <vehicle id="16" depart="18.43">
        <route edges="43405606#1 -43405601#2 -43405601#1 -43405601#0 -44168021#1 -44168021#0 14578924#0 14578924#1 14578924#2 14578924#3 44167989#0 44167989#1 -4049543#3 -4049543#2 -4049543#1 -4049543#0 14486362#0 14486362#1 31784877#0 31784877#1 31784877#2 31784877#3 14485666#0 14485666#1 14485666#2 44167871#0 44167871#1 102494324#0 32840922#0 7971519 7971518 7971535 43759950#0 43759950#1 53321075#0 53321075#1 53321083#0 53321083#1 -43798349#1 -43798349#0 -83668212 -83668215 -43759960 -43759962 -14771608 -195664262 -195664261#1 -195664261#0 -131443341 -44336476 -7971523 14459910 44336477 131431680 27926842 -8031768 14459386 161638119#1 161638119#2 14459472 24619376#4 53323771#0 53323771#1 4321666#8 4321666#9 4321666#10 26630160#4 26630160#5 72247187#0 72247187#1 4487841 131450463 72247218#0 72247218#1 72247218#2 72247184 72247177 131450464#0 131450464#1 7593899 43407379#0 7593896#0 7593896#1 7593896#2 7593896#3 7604153#1"/>
    </vehicle>
    <vehicle id="17" depart="19.58">
        <route edges="131504884#0 13025660#2 32025057#0 32025057#1 13028902 11477601#0 11477601#1 11477601#2 11477601#3 11477601#4 43798337#0 43798337#1 43798337#2 43798337#3 43798337#4 43798337#5 43798337#6 43798337#7 43798337#8 43798337#9 43798341#0 43798341#1 14484711#0 14484711#1 24829805 123625798#0 123625798#1 123625798#2 -7732155#1 -7732155#0 7732136#0 7732136#1 7732157#0 7732157#2 7732157#3 7732157#4 7732157#5 43798344#10 43798344#11 43798344#12"/>
    </vehicle>
    <vehicle id="18" depart="20.74">
        <route edges="11072515 11072569#3 11072569#4 11072569#5 11074195 11072487#4 11072487#5 11072487#6 11072487#7 11072487#8 11072487#10 24469940#0 24469940#2 24469940#3 24469940#4 24469940#5 24469940#6 24469940#7 8029884#0 8029884#1 7971522#7 11101678#1 8029934#3 131431668#5 131431668#6"/>
    </vehicle>
    <vehicle id="19" depart="21.89">
        <route edges="33581058#0 33581058#1 33580891 33580892 8098304 8098313#0 8098313#1 8098340#0 8098340#1 8098340#2 -8098344 8098342#0 184882187 131431676 184882186 14459939 7971523 44336476 131443341 195664261#0 195664261#1 195664262 14771608 14481788#0 14481788#1 14481788#2 14481788#3 14481788#4 44737274#4 44737274#5 44737274#6 44737274#7 34378919#0 34378919#1 34378919#2 34378919#3 86974743#0 24253745#2 164298252#0 7732132#1 7732148#0 44335069 7732155#0 7732155#1 -123625798#2 -123625798#1 -123625798#0 14484847#0 14484847#1 -56323517#1 -56323517#0 7732125#2"/>
    </vehicle>
    <vehicle id="20" depart="23.04">
        <route edges="15090772#1 15090772#2 137206570#0 137206570#1 137206570#2 137206570#3 137206570#4 137206570#5 137206570#6 137206570#7 137206570#8 137206570#9 -14567697#7 -14567697#6 -14567697#5 23573143#4 23573143#5 131451848#8 131451848#9 131451848#10 131451848#11 -121797007 4290639#0 4290639#1 131451860#0 164369263 164369262 14370044#0 164369265 164369264 83668211 83668209 83668213#0 14461138 14461155 122191131 -77616842#1 -77616842#0 -7972452#1 -7972452#0 32606716#0 32606716#1 136841239#0 136841239#1 43410321#0 43410321#1 43410322#0 43410322#1 4950642#0 4950642#2 4950642#3 4950642#4 33580892 131443344 131443345#0 131443345#1 33580888 33580890 4950693#0 4950693#1 72247241#10 4101286#0 4101286#1"/>
    </vehicle>
    <vehicle id="21" depart="24.19">
        <route edges="24222380#1 -11101797#1 11101717#1 11101717#2 195664262 131431668#4 131431668#5 131431668#6 131431668#7 44737275#0 44737275#1 44737275#2 45764847#0 45764847#1 45764847#2 7971918#0 7971918#1 44335068#0 4946755#0 4946755#1 4946755#2 4946755#3 4946755#4 104340973#0 104340973#1 104340973#2 133979729 30625550#1 30625550#2 30625550#4 45764850 43410337#0 43410337#1 43410338 71055297#0 71055297#1 71019433 71019462 137200185 -32029327#6 -32029327#5 -32029327#4 -32029327#3 -32029327#2 -32029327#1 -32029327#0 -32029326 -82567739#3 -82567739#2 -82567739#1 -82567739#0 -43410339 -45756877#1 -45756877#0 -70810663 -82567737 -82567738#1 -82567738#0 -82567730 -82567740#1 -82567740#0 9939233 9938944#6 9938944#7"/>
    </vehicle>
    <vehicle id="22" depart="25.34">
        <route edges="45756883#2 45756883#3 45756883#4 45756883#5 45756883#6 45756883#7 45756883#8 45756883#9 45756883#10 131497905 71270057 71270048 71270050#0 71270050#1 71270050#2 71270050#3 71270050#4 71270050#5 71270050#6 -44168021#1 44168021#1"/>
    </vehicle>
    <vehicle id="23" depart="26.50">
        <route edges="43405602#12 -43405602#12 -43405602#11 -43405602#10 -43405602#9 -43405602#8 -43405602#7 -43405602#6 -43405602#5 -43405602#4 -43405602#3 -43405602#2 -43405602#1 -43405602#0 -43405601#2 -43405601#1 -43405601#0 -44168021#1 -44168021#0 14578924#0 14578924#1 14578924#2 14578924#3 44167989#0 44167989#1 -4049543#3 -4049543#2 -4049543#1 -4049543#0 31784875 71079767 71054746#0 71054746#1 71054746#2 31784877#0 31784877#1 31784877#2 31784877#3 14485666#0 14485666#1 14485666#2 44167871#0 44167871#1 102494324#0 32840922#0 7971519 -7971524 7971516 7971535 43759950#0 43759950#1 53321075#0 53321075#1 53321083#0 53321083#1 -43798349#1 -43798349#0"/>
    </vehicle>
    <vehicle id="24" depart="27.65">
        <route edges="11103994#1 11104011#0 11104225#0 11104225#1 31784481#2 44335669#0 44335669#1 44335669#2 44335669#3 44335669#4 44335669#5 44536988#0 44536988#1 44536988#2 44536988#3 9934004#0 11074834#0 9933940#0 9934004#4 9934004#5 9934004#6 9934004#7 9934004#8 11072487#0 11072487#1 11072487#2 9941126#0 9941126#1 9941126#2 9941126#3 32029327#0 32029327#1 32029327#2 32029327#3 32029327#4 32029327#5 32029327#6 137200184 4339396#0 4339396#1 30625558 77065964 77065975#0 77065975#1 77065975#2 32025281 32025282#0 32025282#1 32028504 131497898 71078008#0 71078008#1 -43407384#1 -43407384#0 -4487846#3 -4487846#2 -4487846#1 4487846#1"/>
    </vehicle>
    <vehicle id="25" depart="28.80">
        <route edges="44508929#1 7593889#0 7593889#1 7593889#2 7593889#3 7593889#4 7593889#5 77603045 43407381#2 27196162 39144874#0 39144874#1 39144874#2 39144874#3 131553930 4497474#0 4497474#1 4497474#2 4497474#3 4497474#4 4497474#5 43407395 107081344#0 4314420#6 4314420#7 43407392#2 24225793#2 24225793#4 7642851 43410335#0 43410335#1 44737275#0 44737275#1 44737275#2 45764847#0 45764847#1 45764847#2 7971918#0 7971918#1 44335068#0 4946755#0 4946755#1 4946755#2"/>
    </vehicle>
    <vehicle id="26" depart="29.95">
        <route edges="32025119#3 32025119#4 14480888#6 85333169 11340425#1 -11379497#2 -11379497#1 -11379497#0 44335668#4 44335668#5 31784357#4 45756902#0 45756902#1 44335669#0 44335669#1 44335669#2 44335669#3 44335669#4 44335669#5 44536988#0 44536988#1 44536988#2 44536988#3 9934004#0 11074834#0 163577079#0 163577079#1 163577079#2 163577079#3 9934157#1 9934157#2 9940952#5 43760124 43410342#0 -56323501#1 56323501#1"/>
    </vehicle>
    <vehicle id="27" depart="31.10">
        <route edges="-34083900 4307813#0 4307813#1 4307813#2 -49600408#3 -49600408#0 7643014#0 7643014#1 7643014#2 43410319#0 43410319#1 43410320 43410321#0 43410321#1 7972445 49600302#0 49600302#1 49600302#2 49600302#3 107090824#0 107090824#1 14459753 184882186 14459939 7971523 44336476 131443341 195664261#0 195664261#1 195664262 131431668#4 131431668#5 131431668#6 131431668#7 44737275#0 44737275#1 44737275#2 45764847#0 45764847#1 45764847#2 7971918#0 7971918#1 44335068#0 4946755#0 4946755#1 4946755#2 4946755#3 4946755#4 104340973#0 104340973#1 104340973#2 133979729 30625550#1 30625550#2 30625550#4 45764850 43410337#0 43410337#1 43410338 71055297#0 71055297#1 71019433 71019462 137200185 -32029327#6 -32029327#5 -32029327#4 -32029327#3 -32029327#2 -32029327#1 -32029327#0 -32029326 -82567739#3 -82567739#2 -82567739#1 -82567739#0 -43410339 9939408#0"/>
    </vehicle>
    <vehicle id="28" depart="32.26">
        <route edges="44167914 32840923 32840924 32840925#0 32840925#1 32840925#2 32840925#3 32840925#4 32840925#5 32840925#6 32840925#7 32840925#8 32840925#9 4487907#0 4487907#1 4487907#2 4487907#3 192162053 45314134#0 45314134#1 67605423 44536106 131451842#0 131451842#1 43405597#0 43405597#1 43405597#2 43405592 8029421#0 8029421#1 15218911#0 62298635#2 -85817321 85817354"/>
    </vehicle>
    <vehicle id="29" depart="33.41">
        <route edges="131497898 15230950#0 15230950#1 -15230905#2 -15230905#1 -15230905#0 32028505#3 -98561765#1 15230938#0 15230939 98561773#0 98561773#1 98561799#0 98561799#1 -45757395#10 -45757395#9 -45757395#8 11071787 -11070369 11069854#0 11069854#1 11069854#2 11069854#3 11069854#4 11069854#5 11069854#6 11069854#7 -45756877#1 -45756877#0 -70810663 -82567737 9939350#0 9939350#1 9938944#10 9939359#1"/>
    </vehicle>
    <vehicle id="30" depart="34.56">
        <route edges="44167895#1 44167895#2 24409150 14483906#0 14483906#1 71054746#0 71054746#1 71054746#2 31784876#0 31784876#1 31784876#2 15090772#0 15090772#1 15090772#2 45314241#0 45314241#1 45314241#2 45314241#3 71270051 24447170#0 24447170#1 24560661 109462880#0 109462880#1 109462880#2 109462880#3 109462880#5 109462880#6 109462880#8 109462880#10 43405589#5"/>
    </vehicle>
    <vehicle id="31" depart="35.71">
        <route edges="13025379#3 -13025379#3 -13025379#2 -13025379#1 -13025379#0 -11105757#1 -11105757#0 11105762 58692956#3 11104407 11104389 58692956#5 31784481#0 31784481#1 31784481#2 44335669#0 44335669#1 44335669#2 44335669#3 44335669#4 44335669#5 44536988#0 44536988#1 44536988#2 44536988#3 9934004#0 9934004#2 9934004#4 9934004#5 9934004#6 9934004#7 9934004#8 9934004#9 9934004#10 -45756878 9939389#0 9939389#1 9939389#3 11069715#0 11069715#1 10643292#0 10643292#1 -11069711#8 182693926#2 182693926#3"/>
    </vehicle>
    <vehicle id="32" depart="36.86">
        <route edges="104340968#4 7642945 4946755#1 4946755#2 4946755#3 4946755#4 104340973#0 104340973#1 104340973#2 133979729 30625550#1 30625550#2 30625550#4 45764850 43410337#0 43410337#1 43410338 71055297#0 71055297#1 71019433 71019462 137200185 -32029327#6 -32029327#5 -32029327#4 -32029327#3 -32029327#2 -32029327#1 -32029327#0 -32029326 -82567739#3 -82567739#2 -82567739#1 -82567739#0 -43410339 -45756877#1 -45756877#0 -70810663 -82567737 -82567738#1 32029515 32029514#0 32029514#1 32029514#2 32029514#3 32029514#4 32029514#5 32029514#6 32029514#7 10643052#0 10643109#0 10643109#1 10643018#0 10643375#2 10643375#3 10643375#4 10643375#5"/>
    </vehicle>
    <vehicle id="33" depart="38.02">
        <route edges="85328249 -85328249 8029903#5 8029903#6 8029903#7 8029903#8 8029903#9 8029903#10 8029903#11 8029903#12 8029903#13 8029903#14 -43759962 -14771608 -195664262 -195664261#1 -195664261#0 -131443341 -44336476 -7971523 7971523"/>
    </vehicle>
    <vehicle id="34" depart="39.17">
        <route edges="-83668212 -83668215 8029920#6 8029920#7 8029920#8 44737274#6 44737274#7 181982237#0 181982237#1 181982237#2 181982237#3 44335072#0 44335072#1 11342060#0 11342060#1 11341864#0 11341864#1 11341864#2 11341864#3 11341864#4 14486405#0 14486405#1 14486405#2 44167909#0 44167909#1 44167909#2 44167909#3 31784878#0 31784878#1 4049543#0 4049543#1 4049543#2 4049543#3 45314235#0 45314235#1"/>
    </vehicle>
    <vehicle id="35" depart="40.32">
        <route edges="4101281#0 4101281#1 4101281#2 4101281#3 -4487156#2 -4487156#1 -4487156#0 4950692#0 4950692#1 4950692#2 4950692#3 131443346#0 131443346#1 33580891 33580892 8098304 8098313#0 8098313#1 24619376#0 24619376#1 24619376#2 24619376#4 53323771#0 136736904#1 136736904#2 136736904#3 136736904#4 136736904#5 43407392#0 43407392#1 43407392#2 43407392#3 43407392#4 43407392#5 43407392#6 4489517#0 43407391 32028843#0 4946758 107078365#0 107078365#2 107078365#4 107078365#5 107078365#6 107078365#7 107078365#8 104340957 104340973#2 104340973#3 104340973#4 32028466 32028467#0 32028467#1 45757395#0 45757395#1 45757395#2 45757395#3 45757395#4 45757395#5 45757395#6 45757395#7 11071787"/>
    </vehicle>
    <vehicle id="36" depart="41.47">
        <route edges="14567951#4 23573143#5 131451848#8 131451848#9 131451848#10 131451848#11 -121797007 4290639#0 4290639#1 131451860#0 164369263 164369262 14370044#0 14370044#1 14370044#2 44884573 4352978 164369260 83668210 83668214#0 83668214#1 43798350 43410315 43410316 -43410314#1 -43410314#0 -76809470#1 -44884571#3 -44884571#2 -163743120"/>
    </vehicle>
    <vehicle id="37" depart="42.62">
        <route edges="14567697#3 -14567697#3 -14567697#2 -14567697#1 7971525 7971516 7971535 43759950#0 43759950#1 53321075#0 53321075#1 53321083#0 53321083#1 -43798349#1 -43798349#0 -83668212 -83668215 -43759960 -43759962 -14771608 -195664262 -195664261#1 -195664261#0 -131443341 -44336476 -7971523 14459910 44336477 131431680 27926842 27464019 4314423#0 4314423#1 4314423#2 4314423#3 4314423#4 4314423#5 4314423#6 4314423#7"/>
    </vehicle>
    <vehicle id="38" depart="43.78">
        <route edges="43759950#0 43759950#1 53321075#0 53321075#1 53321083#0 53321083#1 -43798349#1 -43798349#0 -83668212 -83668215 -43759960 -43759962 -14771608 -195664262 -195664261#1 -195664261#0 -131443341 -44336476 -7971523 14459910 44336477 131431680 27926842 27464019 44336472#0 44336472#1 44336472#2 4314421#1 4314421#2 4314421#3 4314421#4 4314421#5 4314421#6 4314421#8 4314421#9 76560505#4 76560505#5"/>
    </vehicle>
    <vehicle id="39" depart="44.93">
        <route edges="116693031 7971503#5 32025213 9933911 8029903#0 8029903#2 8029903#3 8029903#4 8029903#5 4339401#0 4339401#1 4339401#2 24469940#3 24469940#4 24275863#0 24275863#1 104340951#0 104340951#1 45764847#0 45764847#1 45764847#2 45764844#3 45764844#4 45764844#5 7642851 43410335#0"/>
    </vehicle>
    <vehicle id="40" depart="46.08">
        <route edges="44167990#2 44167990#3 -43405604#2 137206565#5 137206565#6 137206565#7 137206565#8 137206569 31783667#0 31783667#1 11477978 27927582#0 27927582#1 137355361#0 137355361#1 11105785#1 11105785#2 11105785#3 11105785#4 43798338#0 43798338#1 43798338#2 43798338#3 131504893#2 58692956#0 58692956#1 58692956#2 58692956#3 58692956#4 58692956#5 31784481#0 31784481#1 31784481#2 44335669#0 44335669#1 44335669#2 44335669#3 44335669#4 44335669#5 44536988#0 44536988#1 44536988#2 44536988#3 9934004#0 11074834#0 9933940#0 9934004#4 9934004#5 9934004#6 9934004#7 9934004#8 9934004#9 9934004#10 -45756878 -74017967#11 -9939359#1 9939359#1"/>
    </vehicle>
    <vehicle id="41" depart="47.23">
        <route edges="29499410#7 4950643#3 4950643#4 4101280#0 136841198 7643014#2 43410319#0 43410319#1 43410320 -136841239#1 -136841239#0 -32606716#1 -32606716#0 -32649171 -116931094 -14460750 -16183492#0 -24222352 131443341 195664261#0 195664261#1 195664262 14771608 14481788#0 14481788#1 14481788#2 14481788#3 14481788#4 14481788#5 14481788#6 14481788#7 14481788#8 14481788#9 14481788#10 14481788#11 44883920 8029903#4 85328249 45764846#3 45764846#4 45764846#5 -112660678#0 116693057 116693048 116693062#0 116693062#1 116693062#2 116693062#3 116693062#4 116693055#3"/>
    </vehicle>
    <vehicle id="42" depart="48.38">
        <route edges="56323520#1 11477415#1 11477415#2 32025119#3 32025119#4 14480888#6 85333169 11340425#1 11340425#2 11340425#3 11340533 131504893#0 131504893#1 131504893#2 58692956#0 58692956#1 11105765 11105757#0 11105757#1 11105757#2 11105757#3 11105757#4 11105757#5 11105757#6 11105757#7 11105757#8 44334522#1"/>
    </vehicle>
    <vehicle id="43" depart="49.54">
        <route edges="-32025212#3 32025212#3 11074248#0 30691101#0 30691101#1 10044099#0 9941126#1 9941126#2 9941126#3 -32029326 7971945 32029328 87425124#0 87425124#1 87425126#0 87425126#1 87425126#2 87425126#3 45757395#5 11070000#0 11070000#1 11070000#2 11070000#3"/>
    </vehicle>
    <vehicle id="44" depart="50.69">
        <route edges="11477683 11477657#4 43798337#4 43798337#5 43798337#6 43798337#7 43798337#8 43798337#9 43798341#0 43798341#1 14484711#0 14484711#1 24829805 123625798#0 123625798#1 123625798#2 -7732155#1 -7732155#0 7732136#0 7732136#1 7732157#0 7732157#2 7732157#3 7732157#4 7732157#5 7732157#6 7732157#7 24585667#0 24585667#1 24585667#2 24585667#3 24585667#4 24585667#5 24585667#6 24585667#7 24585667#8 24585667#9 -83668215 -43759960 -43759962 -14771608 -195664262 -195664261#1 -195664261#0 -131443341 -44336476 -7971523 14459910 44336477 131431680 27926842 -8031768 14459386 161638119#1 161638119#2 14459472 24619376#4 53323771#0 53323771#1 4321666#8 4321666#9 4321666#10 26630160#4 26630160#5 72247187#0 72247187#1 72247167#0 72247167#1 72247167#2 72247167#3 72247167#4 72247167#5 33760309#0 33760309#1 33760309#2 48334260"/>
    </vehicle>
    <vehicle id="45" depart="51.84">
        <route edges="45757395#1 -45757395#1 -45757395#0 45757396 98561793 45757400#0 45757400#1 32025283 32025284#0 32025284#1 32025284#2 104340955 104340968#0 104340968#1 104340968#2 104340968#3 104340968#4 104340968#5 104340968#6 7971920#0 7971920#1 45764844#5 7642851 43410335#0 43410335#1 44737274#0 44737274#1 44737274#2 44737274#3 44737274#4 44737274#5 44737274#6 44737274#7 181982237#0 181982237#1 181982237#2 181982237#3 24253753#0 24253753#2 53321070#0 53321070#1 53321067#0 53321067#2 53321067#4 53321067#5 43759863#0 43759863#3 43759863#4 164369266#0 164369266#1 43759864#0 7972776#0 7972776#1 7972776#3 23573546#0 23573546#2 23573546#3 23573546#4 23573546#5 23573546#6 23573546#7 23573546#8 44572477#0"/>
    </vehicle>
    <vehicle id="46" depart="52.99">
        <route edges="-32024664 -13025750#7 -13025750#5 11476737#6 67496498 11104585 67496458 -31783668#3 -31783668#2 -31783668#1 -31783668#0 -31783667#1 -31783667#0 137206567 44167990#0 44167990#1 44167990#2 44167990#3 44167990#4 44167990#6 44167990#7 44167989#0 44167989#1 -4049543#3 -4049543#2 -4049543#1 -4049543#0 14486362#0 14486362#1 31784876#0 31784876#1 14566866#0 14566866#1 23573143#0 23573143#1 23573143#2 23573143#3 23573143#4 23573143#5 23573143#6 123625796#5 123625796#6"/>
    </vehicle>
    <vehicle id="47" depart="54.14">
        <route edges="8572145 7732165#5 24469940#7 8029884#0 8029884#1 7971522#7 7971522#8 43410336#1 11101530#0 11101348 43410334#3 43410334#4 43410334#5 44737273 131431680 27926842 -8031768 14459386 161638119#1 161638119#2 14459472 24619376#4 53323771#0 53323771#1 4321666#8 4321666#9 4321666#10 26630160#4 26630160#5 72247187#0 72247187#1 72247167#0 72247167#1 72247167#2 72247167#3 72247167#4 72247167#5 33760309#0 4950791 33760307#0 33760307#1"/>
    </vehicle>
    <vehicle id="48" depart="55.30">
        <route edges="-163577120 163577120 7990966#3 9934195 9934191 32195452#0 32195452#1 118988838 32195456#0 31784353#0 31784353#1 31784357#0 31784357#1 31784357#2 31784357#3 31784357#4 8014111#0 8014111#2 8014111#3 8014111#4 44335671#1 44335671#2 131504893#0 131504893#1 131504893#2 31784479#0 31784479#1 131504884#0 131504884#1 -31783668#3 -31783668#2 -31783668#1 -31783668#0 -31783667#1 -31783667#0 27927581#0 11477860#0 11477860#1 14585829#0 14585829#1 14585829#2 14585829#3 14585829#4 14585829#5 14585829#6 -43405602#1 -43405602#0 -43405601#2 -43405601#1 -43405601#0 -71270050#6 -71270050#5 -71270050#4 -71270050#3 -71270050#2 -71270050#1 -71270046#1 -71270046#0 15093196 23712923#1 15100883 131497926#1 77820508"/>
    </vehicle>
    <vehicle id="49" depart="56.45">